 Init: read login configuration file: \meta.cfg
 ******  HSPICE    -- U-2003.09  (20030718) 08:43:22  10/16/2003  pcnt         
  Copyright (C) 2003 Synopsys, Inc. All Rights Reserved.                       
  Unpublished-rights reserved under US copyright laws.
  This program is protected by law and is subject to the 
  terms and conditions of the license agreement found in:
    C:\HSPICE\2003.09\\license.txt
  Use of this program is your acceptance to be bound by this 
  license agreement. HSPICE is the trademark of Synopsys, Inc.
  Input File: io33v.sp                                                          
  lic:  
  lic: FLEXlm: v6.1g 
  lic: USER:   amuranyi             HOSTNAME: amuranyi-desk 
  lic: HOSTID: 0090273e6a83         PID:      604 
  lic: Using FLEXlm license file: 
  lic: 7182@132.233.250.124 
  lic: Server node is down or not responding  See the system adminstrator about s
  lic: Using FLEXlm license file: 
  lic: 7182@132.233.250.124 
  lic: Unable to checkout hspicewin 
  lic:   
  lic:  
  lic: FLEXlm: v6.1g 
  lic: USER:   amuranyi             HOSTNAME: amuranyi-desk 
  lic: HOSTID: 0090273e6a83         PID:      604 
  lic: Using FLEXlm license file: 
  lic: 7185@fhlscs2.fm.intel.com 
  lic: Checkout hspice;  Encryption code: 6CAF3201D54D3767FC00 
  lic: License/Maintenance for hspice will expire on 23-jan-2004/2003.09 
  lic: 3(in_use)/5 FLOATING license(s) on SERVER 
  lic:   
 Init: read login configuration file: \meta.cfg
 .subckt buffer  1      2      3      4      5      6      7
 *               d_in   pad    puref  pclref pdref  gclref /en
 x0 1 2 3 4 5 6 7 io_buf           $ <<<------ change buffer name here
 .ends
 ********************************************************************************
 .alter                            $ minimum case
  **reading include file=io_buf.inc
 ******  HSPICE    -- U-2003.09  (20030718) 08:43:22  10/16/2003  pcnt         
 ******  
 ********************* v-t curve simulations *********************             
  ******  circuit name directory                                               
 ******  
 circuit number to circuit name directory
 number  circuitname                   definition        multiplier
     0 main circuit
     5 xdrv_pd_on.x0.                  io_buf             1.00 
     6 xdrv_pd_off.x0.                 io_buf             1.00 
     7 xdrv_pu_on.x0.                  io_buf             1.00 
     8 xdrv_pu_off.x0.                 io_buf             1.00 
     9 xdrv_pd_on.x0.x1.               inverter           1.00 
    10 xdrv_pd_on.x0.x2.               nand2              1.00 
    11 xdrv_pd_on.x0.x3.               nor2               1.00 
    12 xdrv_pd_on.x0.x4.               inverter           1.00 
    13 xdrv_pd_on.x0.x5.               inverter           1.00 
    14 xdrv_pd_on.x0.x6.               nand2              1.00 
    15 xdrv_pd_on.x0.x7.               nor2               1.00 
    16 xdrv_pd_on.x0.x8.               inverter           1.00 
    17 xdrv_pd_off.x0.x1.              inverter           1.00 
    18 xdrv_pd_off.x0.x2.              nand2              1.00 
    19 xdrv_pd_off.x0.x3.              nor2               1.00 
    20 xdrv_pd_off.x0.x4.              inverter           1.00 
    21 xdrv_pd_off.x0.x5.              inverter           1.00 
    22 xdrv_pd_off.x0.x6.              nand2              1.00 
    23 xdrv_pd_off.x0.x7.              nor2               1.00 
    24 xdrv_pd_off.x0.x8.              inverter           1.00 
    25 xdrv_pu_on.x0.x1.               inverter           1.00 
    26 xdrv_pu_on.x0.x2.               nand2              1.00 
    27 xdrv_pu_on.x0.x3.               nor2               1.00 
    28 xdrv_pu_on.x0.x4.               inverter           1.00 
    29 xdrv_pu_on.x0.x5.               inverter           1.00 
    30 xdrv_pu_on.x0.x6.               nand2              1.00 
    31 xdrv_pu_on.x0.x7.               nor2               1.00 
    32 xdrv_pu_on.x0.x8.               inverter           1.00 
    33 xdrv_pu_off.x0.x1.              inverter           1.00 
    34 xdrv_pu_off.x0.x2.              nand2              1.00 
    35 xdrv_pu_off.x0.x3.              nor2               1.00 
    36 xdrv_pu_off.x0.x4.              inverter           1.00 
    37 xdrv_pu_off.x0.x5.              inverter           1.00 
    38 xdrv_pu_off.x0.x6.              nand2              1.00 
    39 xdrv_pu_off.x0.x7.              nor2               1.00 
    40 xdrv_pu_off.x0.x8.              inverter           1.00 
 ******  HSPICE    -- U-2003.09  (20030718) 08:43:22  10/16/2003  pcnt         
 ******  
 ********************* v-t curve simulations *********************             
  ******  operating point information      tnom=  25.000 temp=  50.000         
 ******  
 ***** operating point status is voltage   simulation time is     0.         
     node    =voltage           node    =voltage           node    =voltage           node    =voltage

 + 0:gclref  =   0.           0:out_pd_o=   2.12301430   0:out_pd_o=   3.30000000   0:out_pu_o=   1.11819568 
 + 0:out_pu_o= 1.8428272e-09  0:pclref  =   3.30000000   0:pdref   =   0.           0:pls_f   =   3.30000000 
 + 0:pls_r   =   0.           0:puref   =   3.30000000   0:v_pd_off=   3.30000000   0:v_pd_on =   3.30000000 
 + 0:v_pu_off=   0.           0:v_pu_on =   0.           0:voff    =   3.30000000   0:von     =   0.         
 + 5:en_b    =   3.29999998   5:gate_n  = 1.2796108e-09  5:gate_p  = 4.4956699e-08  5:pre_n1  = 8.5928380e-09
 + 5:pre_n2  =   3.29999998   5:pre_p1  = 2.2478349e-08  5:pre_p2  =   3.29999998   5:rcv_in  =   3.30000000 
 + 5:rcv_out = 5.6195873e-09  6:en_b    =   3.29999998   6:gate_n  =   3.29999987   6:gate_p  =   3.30000000 
 + 6:pre_n1  =   3.29999993   6:pre_n2  = 5.6195874e-09  6:pre_p1  =   3.29999998   6:pre_p2  = 5.6195874e-09
 + 6:rcv_in  =   2.12301430   6:rcv_out = 4.4356619e-02  7:en_b    =   3.29999998   7:gate_n  =   3.29999987 
 + 7:gate_p  =   3.30000000   7:pre_n1  =   3.29999993   7:pre_n2  = 5.6195874e-09  7:pre_p1  =   3.29999998 
 + 7:pre_p2  = 5.6195874e-09  7:rcv_in  = 1.8428272e-09  7:rcv_out =   3.29999998   8:en_b    =   3.29999998 
 + 8:gate_n  = 1.2796108e-09  8:gate_p  = 4.4956699e-08  8:pre_n1  = 8.5928380e-09  8:pre_n2  =   3.29999998 
 + 8:pre_p1  = 2.2478349e-08  8:pre_p2  =   3.29999998   8:rcv_in  =   1.11819568   8:rcv_out =   3.18692595 
 +10:n_n     = 1.1239175e-08 11:p_p     =   1.30995679  14:n_n     = 2.2478349e-08 15:p_p     =   2.60316620 
 +18:n_n     =   1.65683128  19:p_p     =   3.29999997  22:n_n     =   0.69682886  23:p_p     =   3.29999993 
 +26:n_n     =   1.65683128  27:p_p     =   3.29999997  30:n_n     =   0.69682886  31:p_p     =   3.29999993 
 +34:n_n     = 1.1239175e-08 35:p_p     =   1.30995679  38:n_n     = 2.2478349e-08 39:p_p     =   2.60316620 

 ******  
 ********************* v-t curve simulations *********************             
  ******  transient analysis               tnom=  25.000 temp=  50.000         
 ******  
   vpower=  3.3000E+00
   vfixture_pd_on=  3.3000E+00
   vfixture_pd_off=  3.3000E+00
   vfixture_pu_on=  0.0000E+00
   vfixture_pu_off=  0.0000E+00
   rfixture_pd_on=  5.0000E+01
   rfixture_pd_off=  5.0000E+01
   rfixture_pu_on=  5.0000E+01
   rfixture_pu_off=  5.0000E+01
   cfixture_pd_on=  0.0000E+00
   cfixture_pd_off=  0.0000E+00
   cfixture_pu_on=  0.0000E+00
   cfixture_pu_off=  0.0000E+00
x

          time    pulldown_on   pulldown_off     pullup_on     pullup_off   
                                                                            
    0.              3.30000000     2.12301430     0.             1.11819568 
  2.50000000e-11    3.29993429     2.12311389  -2.2513749e-05    1.11822316 
  5.00000000e-11    3.30005014     2.12320846  -1.9009852e-04    1.11836017 
  7.50000000e-11    3.30011318     2.12351459  -2.4247686e-04    1.11834995 
  1.00000000e-10    3.30014254     2.12394532  -2.3484504e-04    1.11825291 
  1.25000000e-10    3.30015299     2.12442593  -2.0559799e-04    1.11811012 
  1.50000000e-10    3.30015292     2.12490561  -1.6355208e-04    1.11794523 
  1.75000000e-10    3.30014710     2.12533537  -1.1386633e-04    1.11777203 
  2.00000000e-10    3.30013832     2.12567517  -5.6374671e-05    1.11759869 
  2.25000000e-10    3.30012779     2.12588547   4.3281708e-06    1.11742982 
  2.50000000e-10    3.30011459     2.12593066   6.8692053e-05    1.11726778 
  2.75000000e-10    3.30010049     2.12578240   1.4510717e-04    1.11711761 
  3.00000000e-10    3.30008076     2.12539990   2.3717346e-04    1.11697836 
  3.25000000e-10    3.30005115     2.12472839   3.5988248e-04    1.11685561 
  3.50000000e-10    3.30001087     2.12365452   5.2801700e-04    1.11676125 
  3.75000000e-10    3.29996041     2.12206120   6.8506844e-04    1.11670871 
  4.00000000e-10    3.29990070     2.11993478   8.2524836e-04    1.11671112 
  4.25000000e-10    3.29983270     2.11729675   9.4577957e-04    1.11678062 
  4.50000000e-10    3.29975743     2.11419309   1.0477238e-03    1.11692833 
  4.75000000e-10    3.29967579     2.11068286   1.1330152e-03    1.11716410 
  5.00000000e-10    3.29958829     2.10683073   1.2039355e-03    1.11749638 
  5.25000000e-10    3.29949517     2.10270238   1.2633952e-03    1.11793264 
  5.50000000e-10    3.29939563     2.09836353   1.3155763e-03    1.11847941 
  5.75000000e-10    3.29928631     2.09387403   1.3638570e-03    1.11914808 
  6.00000000e-10    3.29916804     2.08930294   1.3861855e-03    1.11994189 
  6.25000000e-10    3.29903912     2.08473104   1.3645557e-03    1.12087404 
  6.50000000e-10    3.29889118     2.08025739   1.2759757e-03    1.12195268 
  6.75000000e-10    3.29873052     2.07610953   1.0506529e-03    1.12320665 
  7.00000000e-10    3.29857878     2.07269878   6.7915905e-04    1.12466138 
  7.25000000e-10    3.29844347     2.07051657   1.6991272e-04    1.12631205 
  7.50000000e-10    3.29835078     2.07008079  -4.6394189e-04    1.12815742 
  7.75000000e-10    3.29829759     2.07190631  -1.2089586e-03    1.13013920 
  8.00000000e-10    3.29826423     2.07648992  -2.0532280e-03    1.13221085 
  8.25000000e-10    3.29830277     2.08430581  -2.9871892e-03    1.13437439 
  8.50000000e-10    3.29844478     2.09580908  -4.0029909e-03    1.13656121 
  8.75000000e-10    3.29870912     2.11144510  -5.0946965e-03    1.13865947 
  9.00000000e-10    3.29910745     2.13166892  -6.2605075e-03    1.14053002 
  9.25000000e-10    3.29964672     2.15699043  -7.5033720e-03    1.14201527 
  9.50000000e-10    3.30033265     2.18808692  -8.8142300e-03    1.14294638 
  9.75000000e-10    3.30116803     2.22554039  -1.0210254e-02    1.14314247 
  1.00000000e-09    3.30214863     2.26896633  -1.1714872e-02    1.14241315 
  1.02500000e-09    3.30327020     2.31807973  -1.3367718e-02    1.14056985 
  1.05000000e-09    3.30453009     2.37282940  -1.5218873e-02    1.13742643 
  1.07500000e-09    3.30592820     2.43300250  -1.7187770e-02    1.13279756 
  1.10000000e-09    3.30747056     2.49803093  -1.9238017e-02    1.12649706 
  1.12500000e-09    3.30916977     2.56714966  -2.1401569e-02    1.11832760 
  1.15000000e-09    3.31104087     2.63941676  -2.3711889e-02    1.10807087 
  1.17500000e-09    3.31311712     2.71368133  -2.6219476e-02    1.09548907 
  1.20000000e-09    3.31538860     2.78856645  -2.8990958e-02    1.08024229 
  1.22500000e-09    3.31769270     2.86240955  -3.2101489e-02    1.06193254 
  1.25000000e-09    3.31997603     2.93318070  -3.5647241e-02    1.04034972 
  1.27500000e-09    3.32222395     2.99834364  -3.9394210e-02    1.01528398 
  1.30000000e-09    3.32440242     3.05525404  -4.3485319e-02    0.98683084 
  1.32500000e-09    3.32648616     3.10159873  -4.8387535e-02    0.95581718 
  1.35000000e-09    3.32846053     3.13766995  -5.1180730e-02    0.92262858 
  1.37500000e-09    3.33031613     3.16656973  -4.4172697e-02    0.88752501 
  1.40000000e-09    3.33204940     3.19016540  -3.6941059e-02    0.85079613 
  1.42500000e-09    3.33366178     3.20953668  -3.0716747e-02    0.81274299 
  1.45000000e-09    3.33515876     3.22547678  -2.5345065e-02    0.77366551 
  1.47500000e-09    3.33653125     3.23857144  -2.0789124e-02    0.73384396 
  1.50000000e-09    3.33775755     3.24929439  -1.7028553e-02    0.69359143 
  1.52500000e-09    3.33886215     3.25804074  -1.4009511e-02    0.65321040 
  1.55000000e-09    3.33987234     3.26515260  -1.1648174e-02    0.61294753 
  1.57500000e-09    3.34080811     3.27091971  -9.8478438e-03    0.57303720 
  1.60000000e-09    3.34168872     3.27558490  -8.5203182e-03    0.53368902 
  1.62500000e-09    3.34253429     3.27935127  -7.6425394e-03    0.49508387 
  1.65000000e-09    3.34334762     3.28238856  -7.1554372e-03    0.45735846 
  1.67500000e-09    3.34412098     3.28483682  -6.9100028e-03    0.42065986 
  1.70000000e-09    3.34484282     3.28678323  -6.8049097e-03    0.38514071 
  1.72500000e-09    3.34550550     3.28825420  -6.8051771e-03    0.35094532 
  1.75000000e-09    3.34610175     3.28927246  -6.8846111e-03    0.31820150 
  1.77500000e-09    3.34661974     3.28997892  -7.0192167e-03    0.28701434 
  1.80000000e-09    3.34708921     3.29048199  -7.2089650e-03    0.25746780 
  1.82500000e-09    3.34759992     3.29082778  -7.4360616e-03    0.22974366 
  1.85000000e-09    3.34814585     3.29104821  -7.6786644e-03    0.20405681 
  1.87500000e-09    3.34864698     3.29116846  -7.9309905e-03    0.18036351 
  1.90000000e-09    3.34908829     3.29121017  -8.1880313e-03    0.15854614 
  1.92500000e-09    3.34947469     3.29119073  -8.4456654e-03    0.13859675 
  1.95000000e-09    3.34981581     3.29112403  -8.7005707e-03    0.12050847 
  1.97500000e-09    3.35012742     3.29102244  -8.9500752e-03    0.10424972 
  2.00000000e-09    3.35043961     3.29089018  -9.1919971e-03  8.9805520e-02
  2.02500000e-09    3.35082584     3.29073443  -9.4244875e-03  7.7083612e-02
  2.05000000e-09    3.35117274     3.29056477  -9.6458731e-03  6.6000439e-02
  2.07500000e-09    3.35033180     3.29038556  -9.8544822e-03  5.6480616e-02
  2.10000000e-09    3.34731569     3.29020033  -1.0048425e-02  4.8425069e-02
  2.12500000e-09    3.34367442     3.29001196  -1.0225270e-02  4.1698929e-02
  2.15000000e-09    3.34035374     3.28982270  -1.0381502e-02  3.6112287e-02
  2.17500000e-09    3.33736600     3.28963434  -1.0511490e-02  3.2095922e-02
  2.20000000e-09    3.33466143     3.28944827  -1.0605271e-02  2.9266151e-02
  2.22500000e-09    3.33219651     3.28926555  -1.0643098e-02  2.6956934e-02
  2.25000000e-09    3.32993798     3.28908697  -1.0579396e-02  2.4948909e-02
  2.27500000e-09    3.32786055     3.28891310  -1.0283129e-02  2.3158092e-02
  2.30000000e-09    3.32594456     3.28874434  -9.9469620e-03  2.1540716e-02
  2.32500000e-09    3.32417430     3.28858094  -9.8127193e-03  2.0069062e-02
  2.35000000e-09    3.32253680     3.28842300  -9.6618518e-03  1.8723528e-02
  2.37500000e-09    3.32102105     3.28827056  -9.3745602e-03  1.7489375e-02
  2.40000000e-09    3.31961744     3.28812352  -8.8891743e-03  1.6355078e-02
  2.42500000e-09    3.31831734     3.28798173  -8.1692518e-03  1.5311342e-02
  2.45000000e-09    3.31711285     3.28784492  -7.1915905e-03  1.4350476e-02
  2.47500000e-09    3.31599646     3.28771273  -5.9410176e-03  1.3465954e-02
  2.50000000e-09    3.31496075     3.28758463  -4.4077214e-03  1.2652132e-02
  2.52500000e-09    3.31399795     3.28745988  -2.5856952e-03  1.1904063e-02
  2.55000000e-09    3.31309884     3.28733731  -4.7173271e-04  1.1217395e-02
  2.57500000e-09    3.31225012     3.28721492   1.9354223e-03  1.0588368e-02
  2.60000000e-09    3.31142498     3.28708873   4.6351574e-03  1.0013929e-02
  2.62500000e-09    3.31060603     3.28694861   7.6256202e-03  9.4921218e-03
  2.65000000e-09    3.30985250     3.28673545   1.0904162e-02  9.0232360e-03
  2.67500000e-09    3.30904950     3.28612401   1.4467415e-02  8.6140162e-03
  2.70000000e-09    3.30808165     3.28524898   1.8311463e-02  8.3030629e-03
  2.72500000e-09    3.30686925     3.28439629   2.2431983e-02  8.3605083e-03
  2.75000000e-09    3.30535510     3.28364529   2.6824346e-02  8.7233517e-03
  2.77500000e-09    3.30349775     3.28302977   3.1483705e-02  9.0747956e-03
  2.80000000e-09    3.30126737     3.28254882   3.6405061e-02  9.3243946e-03
  2.82500000e-09    3.29864314     3.28218207   4.1583315e-02  9.4255667e-03
  2.85000000e-09    3.29561332     3.28191130   4.7013308e-02  9.4063454e-03
  2.87500000e-09    3.29217176     3.28172068   5.2689852e-02  9.3081650e-03
  2.90000000e-09    3.28831596     3.28159665   5.8607758e-02  9.1589951e-03
  2.92500000e-09    3.28404684     3.28152762   6.4762325e-02  8.9781503e-03
  2.95000000e-09    3.27936795     3.28150378   7.1148346e-02  8.7791239e-03
  2.97500000e-09    3.27428486     3.28151682   7.7759449e-02  8.5713652e-03
  3.00000000e-09    3.26880466     3.28155976   8.4589487e-02  8.3614465e-03
  3.02500000e-09    3.26293557     3.28162729   9.1632348e-02  8.1538641e-03
  3.05000000e-09    3.25668663     3.28171534   9.8881291e-02  7.9516080e-03
  3.07500000e-09    3.25006745     3.28181961     0.10634215   7.7565760e-03
  3.10000000e-09    3.24308842     3.28193643     0.11400705   7.5698803e-03
  3.12500000e-09    3.23576116     3.28206281     0.12186344   7.3920741e-03
  3.15000000e-09    3.22809833     3.28219633     0.12990751   7.2231527e-03
  3.17500000e-09    3.22011345     3.28233498     0.13813523   7.0623369e-03
  3.20000000e-09    3.21182091     3.28247716     0.14654254   6.9088338e-03
  3.22500000e-09    3.20323672     3.28262157     0.15512539   6.7620738e-03
  3.25000000e-09    3.19435981     3.28276714     0.16387978   6.6215887e-03
  3.27500000e-09    3.18520680     3.28291304     0.17280181   6.4869574e-03
  3.30000000e-09    3.17580270     3.28305860     0.18188766   6.3577834e-03
  3.32500000e-09    3.16616077     3.28320328     0.19113359   6.2336897e-03
  3.35000000e-09    3.15629452     3.28334666     0.20053600   6.1143170e-03
  3.37500000e-09    3.14621747     3.28348843     0.21009137   5.9993256e-03
  3.40000000e-09    3.13594311     3.28362832     0.21979702   5.8883960e-03
  3.42500000e-09    3.12548476     3.28376616     0.22964922   5.7812303e-03
  3.45000000e-09    3.11485559     3.28390181     0.23964190   5.6775523e-03
  3.47500000e-09    3.10406852     3.28403517     0.24976838   5.5771070e-03
  3.50000000e-09    3.09313628     3.28416616     0.26002160   5.4796600e-03
  3.52500000e-09    3.08207129     3.28429476     0.27039417   5.3849968e-03
  3.55000000e-09    3.07088572     3.28442184     0.28087844   5.2929214e-03
  3.57500000e-09    3.05959145     3.28454952     0.29146660   5.2032553e-03
  3.60000000e-09    3.04820006     3.28467855     0.30215069   5.1158358e-03
  3.62500000e-09    3.03672281     3.28480930     0.31292267   5.0305152e-03
  3.65000000e-09    3.02517067     3.28494205     0.32377444   4.9471595e-03
  3.67500000e-09    3.01355428     3.28507695     0.33469785   4.8656468e-03
  3.70000000e-09    3.00188395     3.28521410     0.34568476   4.7858667e-03
  3.72500000e-09    2.99016967     3.28535353     0.35672706   4.7077192e-03
  3.75000000e-09    2.97842110     3.28549526     0.36781666   4.6311134e-03
  3.77500000e-09    2.96664759     3.28563924     0.37894553   4.5559670e-03
  3.80000000e-09    2.95485814     3.28578542     0.39010572   4.4822054e-03
  3.82500000e-09    2.94306143     3.28593372     0.40128936   4.4097608e-03
  3.85000000e-09    2.93126582     3.28608407     0.41248868   4.3385718e-03
  3.87500000e-09    2.91947934     3.28623637     0.42369603   4.2685827e-03
  3.90000000e-09    2.90770972     3.28639052     0.43490391   4.1997429e-03
  3.92500000e-09    2.89596433     3.28654642     0.44610494   4.1320064e-03
  3.95000000e-09    2.88425028     3.28670397     0.45729189   4.0653315e-03
  3.97500000e-09    2.87257433     3.28686305     0.46845770   3.9996801e-03
  4.00000000e-09    2.86094297     3.28702357     0.47959549   3.9350178e-03
  4.02500000e-09    2.84936236     3.28718540     0.49069855   3.8713132e-03
  4.05000000e-09    2.83783840     3.28734844     0.50176037   3.8085375e-03
  4.07500000e-09    2.82637668     3.28751259     0.51277462   3.7466647e-03
  4.10000000e-09    2.81498252     3.28767772     0.52373519   3.6856709e-03
  4.12500000e-09    2.80366098     3.28784373     0.53463617   3.6255344e-03
  4.15000000e-09    2.79241685     3.28801052     0.54547188   3.5662353e-03
  4.17500000e-09    2.78125467     3.28817797     0.55623683   3.5077552e-03
  4.20000000e-09    2.77017877     3.28834597     0.56692578   3.4500775e-03
  4.22500000e-09    2.75919324     3.28851443     0.57753369   3.3931868e-03
  4.25000000e-09    2.74830202     3.28868323     0.58805577   3.3370689e-03
  4.27500000e-09    2.73750899     3.28885227     0.59848744   3.2817108e-03
  4.30000000e-09    2.72681809     3.28902145     0.60882436   3.2271005e-03
  4.32500000e-09    2.71623373     3.28919067     0.61906242   3.1732266e-03
  4.35000000e-09    2.70575832     3.28935983     0.62919773   3.1200788e-03
  4.37500000e-09    2.69539016     3.28952882     0.63922664   3.0676474e-03
  4.40000000e-09    2.68512974     3.28969757     0.64914571   3.0159235e-03
  4.42500000e-09    2.67497953     3.28986596     0.65895174   2.9648983e-03
  4.45000000e-09    2.66494230     3.29003391     0.66864175   2.9145640e-03
  4.47500000e-09    2.65502059     3.29020133     0.67821297   2.8649130e-03
  4.50000000e-09    2.64521660     3.29036813     0.68766285   2.8159382e-03
  4.52500000e-09    2.63553219     3.29053423     0.69698904   2.7676326e-03
  4.55000000e-09    2.62596893     3.29069954     0.70618942   2.7199898e-03
  4.57500000e-09    2.61652812     3.29086399     0.71526205   2.6730034e-03
  4.60000000e-09    2.60721086     3.29102749     0.72420518   2.6266675e-03
  4.62500000e-09    2.59801804     3.29118998     0.73301725   2.5809762e-03
  4.65000000e-09    2.58895039     3.29135137     0.74169688   2.5359239e-03
  4.67500000e-09    2.58000848     3.29151161     0.75024285   2.4915049e-03
  4.70000000e-09    2.57119275     3.29167061     0.75865408   2.4477138e-03
  4.72500000e-09    2.56250350     3.29182833     0.76692960   2.4045454e-03
  4.75000000e-09    2.55394091     3.29198470     0.77506849   2.3619944e-03
  4.77500000e-09    2.54550506     3.29213966     0.78306978   2.3200556e-03
  4.80000000e-09    2.53719589     3.29229315     0.79093230   2.2787238e-03
  4.82500000e-09    2.52901326     3.29244514     0.79865713   2.2379940e-03
  4.85000000e-09    2.52095694     3.29259555     0.80624775   2.1978612e-03
  4.87500000e-09    2.51302659     3.29274436     0.81370515   2.1583201e-03
  4.90000000e-09    2.50522180     3.29289151     0.82102875   2.1193659e-03
  4.92500000e-09    2.49754207     3.29303696     0.82821796   2.0809933e-03
  4.95000000e-09    2.48998682     3.29318069     0.83527252   2.0431974e-03
  4.97500000e-09    2.48255540     3.29332265     0.84219255   2.0059731e-03
  5.00000000e-09    2.47524710     3.29346281     0.84897846   1.9693153e-03
  5.02500000e-09    2.46806114     3.29360114     0.85563091   1.9332187e-03
  5.05000000e-09    2.46099667     3.29373762     0.86215074   1.8976784e-03
  5.07500000e-09    2.45405279     3.29387222     0.86853894   1.8626891e-03
  5.10000000e-09    2.44722856     3.29400492     0.87479661   1.8282456e-03
  5.12500000e-09    2.44052297     3.29413570     0.88092494   1.7943427e-03
  5.15000000e-09    2.43393498     3.29426455     0.88692518   1.7609750e-03
  5.17500000e-09    2.42746350     3.29439145     0.89279868   1.7281373e-03
  5.20000000e-09    2.42110740     3.29451638     0.89854684   1.6958243e-03
  5.22500000e-09    2.41486552     3.29463935     0.90417109   1.6640305e-03
  5.25000000e-09    2.40873665     3.29476034     0.90967295   1.6327506e-03
  5.27500000e-09    2.40271958     3.29487935     0.91505395   1.6019792e-03
  5.30000000e-09    2.39681304     3.29499638     0.92031568   1.5717107e-03
  5.32500000e-09    2.39101575     3.29511142     0.92545770   1.5419397e-03
  5.35000000e-09    2.38532641     3.29522447     0.93046554   1.5126606e-03
  5.37500000e-09    2.37974370     3.29533554     0.93533690   1.4838680e-03
  5.40000000e-09    2.37426627     3.29544463     0.94007649   1.4555563e-03
  5.42500000e-09    2.36889277     3.29555175     0.94468849   1.4277198e-03
  5.45000000e-09    2.36362182     3.29565691     0.94917675   1.4003531e-03
  5.47500000e-09    2.35845205     3.29576011     0.95354497   1.3734505e-03
  5.50000000e-09    2.35338206     3.29586136     0.95779671   1.3470063e-03
  5.52500000e-09    2.34841044     3.29596068     0.96193544   1.3210150e-03
  5.55000000e-09    2.34353580     3.29605808     0.96596448   1.2954708e-03
  5.57500000e-09    2.33875673     3.29615357     0.96988708   1.2703683e-03
  5.60000000e-09    2.33407180     3.29624717     0.97370634   1.2457016e-03
  5.62500000e-09    2.32947960     3.29633889     0.97742528   1.2214652e-03
  5.65000000e-09    2.32497872     3.29642876     0.98104679   1.1976535e-03
  5.67500000e-09    2.32056774     3.29651679     0.98457366   1.1742607e-03
  5.70000000e-09    2.31624525     3.29660300     0.98800859   1.1512814e-03
  5.72500000e-09    2.31200984     3.29668741     0.99135415   1.1287098e-03
  5.75000000e-09    2.30786011     3.29677004     0.99461284   1.1065403e-03
  5.77500000e-09    2.30379465     3.29685091     0.99778709   1.0847674e-03
  5.80000000e-09    2.29981207     3.29693005     1.00087920   1.0633855e-03
  5.82500000e-09    2.29591100     3.29700747     1.00389144   1.0423891e-03
  5.85000000e-09    2.29209005     3.29708320     1.00682596   1.0217726e-03
  5.87500000e-09    2.28834824     3.29715727     1.00968486   1.0015305e-03
  5.90000000e-09    2.28468874     3.29722969     1.01247018   9.8165736e-04
  5.92500000e-09    2.28111422     3.29730049     1.01518388   9.6214773e-04
  5.95000000e-09    2.27762436     3.29736970     1.01782787   9.4299620e-04
  5.97500000e-09    2.27421803     3.29743734     1.02040398   9.2419737e-04
  6.00000000e-09    2.27089371     3.29750343     1.02291401   9.0574590e-04
  6.02500000e-09    2.26764960     3.29756800     1.02535970   8.8763647e-04
  6.05000000e-09    2.26448374     3.29763108     1.02774271   8.6986382e-04
  6.07500000e-09    2.26139411     3.29769270     1.03006470   8.5242269e-04
  6.10000000e-09    2.25837866     3.29775286     1.03232724   8.3530790e-04
  6.12500000e-09    2.25543534     3.29781161     1.03453188   8.1851429e-04
  6.15000000e-09    2.25256213     3.29786897     1.03668011   8.0203675e-04
  6.17500000e-09    2.24975706     3.29792496     1.03877339   7.8587021e-04
  6.20000000e-09    2.24701821     3.29797960     1.04081314   7.7000964e-04
  6.22500000e-09    2.24434370     3.29803293     1.04280074   7.5445009e-04
  6.25000000e-09    2.24173172     3.29808497     1.04473752   7.3918661e-04
  6.27500000e-09    2.23918054     3.29813575     1.04662478   7.2421433e-04
  6.30000000e-09    2.23668847     3.29818528     1.04846380   7.0952841e-04
  6.32500000e-09    2.23425387     3.29823359     1.05025580   6.9512409e-04
  6.35000000e-09    2.23187519     3.29828072     1.05200200   6.8099663e-04
  6.37500000e-09    2.22955091     3.29832667     1.05370356   6.6714136e-04
  6.40000000e-09    2.22727958     3.29837149     1.05536161   6.5355365e-04
  6.42500000e-09    2.22505978     3.29841518     1.05697728   6.4022893e-04
  6.45000000e-09    2.22289017     3.29845778     1.05855163   6.2716268e-04
  6.47500000e-09    2.22076943     3.29849930     1.06008572   6.1435044e-04
  6.50000000e-09    2.21869630     3.29853978     1.06158057   6.0178781e-04
  6.52500000e-09    2.21666956     3.29857922     1.06303719   5.8947041e-04
  6.55000000e-09    2.21468803     3.29861767     1.06445654   5.7739396e-04
  6.57500000e-09    2.21275056     3.29865513     1.06583958   5.6555421e-04
  6.60000000e-09    2.21085606     3.29869163     1.06718722   5.5394697e-04
  6.62500000e-09    2.20900345     3.29872720     1.06850038   5.4256810e-04
  6.65000000e-09    2.20719170     3.29876184     1.06977991   5.3141352e-04
  6.67500000e-09    2.20541981     3.29879559     1.07102669   5.2047922e-04
  6.70000000e-09    2.20368680     3.29882847     1.07224153   5.0976122e-04
  6.72500000e-09    2.20199173     3.29886049     1.07342526   4.9925560e-04
  6.75000000e-09    2.20033369     3.29889167     1.07457866   4.8895852e-04
  6.77500000e-09    2.19871179     3.29892204     1.07570251   4.7886616e-04
  6.80000000e-09    2.19712517     3.29895161     1.07679756   4.6897478e-04
  6.82500000e-09    2.19557299     3.29898041     1.07786453   4.5928069e-04
  6.85000000e-09    2.19405445     3.29900844     1.07890415   4.4978025e-04
  6.87500000e-09    2.19256874     3.29903574     1.07991711   4.4046988e-04
  6.90000000e-09    2.19111511     3.29906231     1.08090408   4.3134605e-04
  6.92500000e-09    2.18969280     3.29908818     1.08186574   4.2240527e-04
  6.95000000e-09    2.18830110     3.29911336     1.08280271   4.1364414e-04
  6.97500000e-09    2.18693929     3.29913787     1.08371564   4.0505928e-04
  7.00000000e-09    2.18560669     3.29916172     1.08460514   3.9664737e-04
  7.02500000e-09    2.18430264     3.29918494     1.08547179   3.8840516e-04
  7.05000000e-09    2.18302647     3.29920753     1.08631619   3.8032943e-04
  7.07500000e-09    2.18177756     3.29922951     1.08713890   3.7241702e-04
  7.10000000e-09    2.18055528     3.29925091     1.08794047   3.6466483e-04
  7.12500000e-09    2.17935904     3.29927173     1.08872144   3.5706979e-04
  7.15000000e-09    2.17818825     3.29929198     1.08948234   3.4962891e-04
  7.17500000e-09    2.17704235     3.29931169     1.09022368   3.4233922e-04
  7.20000000e-09    2.17592076     3.29933086     1.09094596   3.3519781e-04
  7.22500000e-09    2.17482296     3.29934952     1.09164967   3.2820183e-04
  7.25000000e-09    2.17374840     3.29936766     1.09233527   3.2134847e-04
  7.27500000e-09    2.17269658     3.29938532     1.09300324   3.1463496e-04
  7.30000000e-09    2.17166699     3.29940249     1.09365402   3.0805859e-04
  7.32500000e-09    2.17065914     3.29941919     1.09428805   3.0161669e-04
  7.35000000e-09    2.16967256     3.29943544     1.09490577   2.9530664e-04
  7.37500000e-09    2.16870676     3.29945124     1.09550758   2.8912587e-04
  7.40000000e-09    2.16776131     3.29946661     1.09609389   2.8307183e-04
  7.42500000e-09    2.16683575     3.29948156     1.09666511   2.7714204e-04
  7.45000000e-09    2.16592964     3.29949609     1.09722161   2.7133406e-04
  7.47500000e-09    2.16504257     3.29951023     1.09776378   2.6564550e-04
  7.50000000e-09    2.16417412     3.29952398     1.09829197   2.6007398e-04
  7.52500000e-09    2.16332388     3.29953735     1.09880656   2.5461721e-04
  7.55000000e-09    2.16249146     3.29955035     1.09930788   2.4927291e-04
  7.57500000e-09    2.16167648     3.29956299     1.09979628   2.4403883e-04
  7.60000000e-09    2.16087855     3.29957528     1.10027209   2.3891281e-04
  7.62500000e-09    2.16009732     3.29958723     1.10073563   2.3389267e-04
  7.65000000e-09    2.15933241     3.29959885     1.10118722   2.2897632e-04
  7.67500000e-09    2.15858348     3.29961015     1.10162716   2.2416168e-04
  7.70000000e-09    2.15785018     3.29962113     1.10205575   2.1944671e-04
  7.72500000e-09    2.15713219     3.29963181     1.10247328   2.1482942e-04
  7.75000000e-09    2.15642917     3.29964220     1.10288004   2.1030784e-04
  7.77500000e-09    2.15574079     3.29965229     1.10327631   2.0588006e-04
  7.80000000e-09    2.15506676     3.29966210     1.10366235   2.0154419e-04
  7.82500000e-09    2.15440676     3.29967164     1.10403842   1.9729837e-04
  7.85000000e-09    2.15376049     3.29968092     1.10440478   1.9314080e-04
  7.87500000e-09    2.15312767     3.29968993     1.10476169   1.8906968e-04
  7.90000000e-09    2.15250800     3.29969869     1.10510938   1.8508327e-04
  7.92500000e-09    2.15190120     3.29970721     1.10544809   1.8117985e-04
  7.95000000e-09    2.15130701     3.29971549     1.10577805   1.7735774e-04
  7.97500000e-09    2.15072515     3.29972354     1.10609949   1.7361529e-04
  8.00000000e-09    2.15015537     3.29973136     1.10641263   1.6995088e-04
  8.02500000e-09    2.14959740     3.29973897     1.10671767   1.6636293e-04
  8.05000000e-09    2.14905101     3.29974636     1.10701484   1.6284987e-04
  8.07500000e-09    2.14851593     3.29975354     1.10730432   1.5941018e-04
  8.10000000e-09    2.14799195     3.29976052     1.10758633   1.5604237e-04
  8.12500000e-09    2.14747881     3.29976731     1.10786104   1.5274495e-04
  8.15000000e-09    2.14697630     3.29977391     1.10812866   1.4951650e-04
  8.17500000e-09    2.14648419     3.29978032     1.10838936   1.4635560e-04
  8.20000000e-09    2.14600226     3.29978655     1.10864332   1.4326087e-04
  8.22500000e-09    2.14553030     3.29979260     1.10889071   1.4023095e-04
  8.25000000e-09    2.14506809     3.29979848     1.10913170   1.3726451e-04
  8.27500000e-09    2.14461544     3.29980420     1.10936647   1.3436025e-04
  8.30000000e-09    2.14417214     3.29980976     1.10959516   1.3151688e-04
  8.32500000e-09    2.14373799     3.29981516     1.10981794   1.2873315e-04
  8.35000000e-09    2.14331281     3.29982041     1.11003495   1.2600784e-04
  8.37500000e-09    2.14289641     3.29982551     1.11024636   1.2333974e-04
  8.40000000e-09    2.14248860     3.29983047     1.11045229   1.2072768e-04
  8.42500000e-09    2.14208921     3.29983528     1.11065290   1.1817048e-04
  8.45000000e-09    2.14169805     3.29983996     1.11084831   1.1566703e-04
  8.47500000e-09    2.14131496     3.29984451     1.11103867   1.1321620e-04
  8.50000000e-09    2.14093977     3.29984893     1.11122410   1.1081692e-04
  8.52500000e-09    2.14057231     3.29985323     1.11140474   1.0846811e-04
  8.55000000e-09    2.14021242     3.29985740     1.11158070   1.0616872e-04
  8.57500000e-09    2.13985995     3.29986146     1.11175211   1.0391774e-04
  8.60000000e-09    2.13951473     3.29986540     1.11191908   1.0171415e-04
  8.62500000e-09    2.13917663     3.29986922     1.11208173   9.9556976e-05
  8.65000000e-09    2.13884549     3.29987295     1.11224016   9.7445253e-05
  8.67500000e-09    2.13852116     3.29987656     1.11239450   9.5378033e-05
  8.70000000e-09    2.13820350     3.29988007     1.11254484   9.3354393e-05
  8.72500000e-09    2.13789239     3.29988349     1.11269129   9.1373425e-05
  8.75000000e-09    2.13758767     3.29988680     1.11283395   8.9434241e-05
  8.77500000e-09    2.13728922     3.29989003     1.11297291   8.7535969e-05
  8.80000000e-09    2.13699691     3.29989316     1.11310828   8.5677757e-05
  8.82500000e-09    2.13671061     3.29989620     1.11324014   8.3858770e-05
  8.85000000e-09    2.13643019     3.29989916     1.11336858   8.2078189e-05
  8.87500000e-09    2.13615553     3.29990203     1.11349370   8.0335212e-05
  8.90000000e-09    2.13588652     3.29990482     1.11361558   7.8629054e-05
  8.92500000e-09    2.13562304     3.29990753     1.11373430   7.6958945e-05
  8.95000000e-09    2.13536497     3.29991017     1.11384995   7.5324131e-05
  8.97500000e-09    2.13511220     3.29991273     1.11396260   7.3723875e-05
  9.00000000e-09    2.13486462     3.29991521     1.11407234   7.2157453e-05
  9.02500000e-09    2.13462213     3.29991763     1.11417923   7.0624156e-05
  9.05000000e-09    2.13438461     3.29991998     1.11428335   6.9123291e-05
  9.07500000e-09    2.13415197     3.29992226     1.11438477   6.7654178e-05
  9.10000000e-09    2.13392410     3.29992447     1.11448357   6.6216152e-05
  9.12500000e-09    2.13370091     3.29992663     1.11457981   6.4808560e-05
  9.15000000e-09    2.13348230     3.29992872     1.11467355   6.3430765e-05
  9.17500000e-09    2.13326818     3.29993075     1.11476487   6.2082140e-05
  9.20000000e-09    2.13305844     3.29993273     1.11485382   6.0762074e-05
  9.22500000e-09    2.13285301     3.29993464     1.11494046   5.9469966e-05
  9.25000000e-09    2.13265179     3.29993651     1.11502486   5.8205230e-05
  9.27500000e-09    2.13245470     3.29993832     1.11510708   5.6967289e-05
  9.30000000e-09    2.13226165     3.29994008     1.11518716   5.5755580e-05
  9.32500000e-09    2.13207256     3.29994179     1.11526516   5.4569553e-05
  9.35000000e-09    2.13188734     3.29994345     1.11534115   5.3408665e-05
  9.37500000e-09    2.13170592     3.29994506     1.11541517   5.2272389e-05
  9.40000000e-09    2.13152822     3.29994663     1.11548726   5.1160206e-05
  9.42500000e-09    2.13135416     3.29994815     1.11555749   5.0071609e-05
  9.45000000e-09    2.13118367     3.29994963     1.11562590   4.9006100e-05
  9.47500000e-09    2.13101667     3.29995107     1.11569254   4.7963195e-05
  9.50000000e-09    2.13085309     3.29995247     1.11575745   4.6942415e-05
  9.52500000e-09    2.13069286     3.29995382     1.11582067   4.5943294e-05
  9.55000000e-09    2.13053591     3.29995514     1.11588226   4.4965377e-05
  9.57500000e-09    2.13038218     3.29995642     1.11594225   4.4008215e-05
  9.60000000e-09    2.13023160     3.29995766     1.11600069   4.3071370e-05
  9.62500000e-09    2.13008410     3.29995887     1.11605761   4.2154414e-05
  9.65000000e-09    2.12993962     3.29996005     1.11611306   4.1256927e-05
  9.67500000e-09    2.12979810     3.29996119     1.11616707   4.0378498e-05
  9.70000000e-09    2.12965947     3.29996229     1.11621967   3.9518724e-05
  9.72500000e-09    2.12952369     3.29996337     1.11627092   3.8677211e-05
  9.75000000e-09    2.12939068     3.29996442     1.11632084   3.7853573e-05
  9.77500000e-09    2.12926040     3.29996543     1.11636946   3.7047433e-05
  9.80000000e-09    2.12913278     3.29996642     1.11641682   3.6258421e-05
  9.82500000e-09    2.12900777     3.29996738     1.11646295   3.5486173e-05
  9.85000000e-09    2.12888533     3.29996831     1.11650789   3.4730337e-05
  9.87500000e-09    2.12876538     3.29996921     1.11655166   3.3990564e-05
  9.90000000e-09    2.12864790     3.29997009     1.11659430   3.3266515e-05
  9.92500000e-09    2.12853281     3.29997095     1.11663583   3.2557857e-05
  9.95000000e-09    2.12842008     3.29997178     1.11667629   3.1864264e-05
  9.97500000e-09    2.12830966     3.29997258     1.11671570   3.1185418e-05
  1.00000000e-08    2.12820149     3.29997337     1.11675408   3.0521006e-05
  1.00250000e-08    2.12809554     3.29997413     1.11679147   2.9870722e-05
  1.00500000e-08    2.12799175     3.29997487     1.11682789   2.9234268e-05
  1.00750000e-08    2.12789009     3.29997558     1.11686337   2.8611350e-05
  1.01000000e-08    2.12779051     3.29997628     1.11689792   2.8001681e-05
  1.01250000e-08    2.12769296     3.29997696     1.11693158   2.7404980e-05
  1.01500000e-08    2.12759741     3.29997762     1.11696437   2.6820974e-05
  1.01750000e-08    2.12750381     3.29997826     1.11699630   2.6249392e-05
  1.02000000e-08    2.12741212     3.29997888     1.11702741   2.5689972e-05
  1.02250000e-08    2.12732231     3.29997948     1.11705771   2.5142455e-05
  1.02500000e-08    2.12723434     3.29998007     1.11708723   2.4606588e-05
  1.02750000e-08    2.12714816     3.29998064     1.11711598   2.4082126e-05
  1.03000000e-08    2.12706375     3.29998119     1.11714399   2.3568826e-05
  1.03250000e-08    2.12698106     3.29998173     1.11717126   2.3066450e-05
  1.03500000e-08    2.12690006     3.29998225     1.11719784   2.2574768e-05
  1.03750000e-08    2.12682072     3.29998276     1.11722372   2.2093552e-05
  1.04000000e-08    2.12674300     3.29998325     1.11724893   2.1622580e-05
  1.04250000e-08    2.12666687     3.29998373     1.11727349   2.1161635e-05
  1.04500000e-08    2.12659229     3.29998419     1.11729741   2.0710504e-05
  1.04750000e-08    2.12651924     3.29998464     1.11732071   2.0268978e-05
  1.05000000e-08    2.12644768     3.29998508     1.11734340   1.9836854e-05
  1.05250000e-08    2.12637758     3.29998551     1.11736551   1.9413931e-05
  1.05500000e-08    2.12630892     3.29998592     1.11738704   1.9000015e-05
  1.05750000e-08    2.12624166     3.29998632     1.11740802   1.8594914e-05
  1.06000000e-08    2.12617577     3.29998672     1.11742845   1.8198440e-05
  1.06250000e-08    2.12611123     3.29998709     1.11744835   1.7810411e-05
  1.06500000e-08    2.12604801     3.29998746     1.11746774   1.7430647e-05
  1.06750000e-08    2.12598608     3.29998782     1.11748662   1.7058973e-05
  1.07000000e-08    2.12592541     3.29998817     1.11750501   1.6695215e-05
  1.07250000e-08    2.12586598     3.29998851     1.11752293   1.6339207e-05
  1.07500000e-08    2.12580777     3.29998884     1.11754038   1.5990784e-05
  1.07750000e-08    2.12575075     3.29998916     1.11755738   1.5649783e-05
  1.08000000e-08    2.12569489     3.29998947     1.11757393   1.5316048e-05
  1.08250000e-08    2.12564017     3.29998977     1.11759006   1.4989424e-05
  1.08500000e-08    2.12558657     3.29999006     1.11760577   1.4669759e-05
  1.08750000e-08    2.12553407     3.29999034     1.11762107   1.4356906e-05
  1.09000000e-08    2.12548264     3.29999062     1.11763598   1.4050719e-05
  1.09250000e-08    2.12543226     3.29999089     1.11765050   1.3751058e-05
  1.09500000e-08    2.12538290     3.29999115     1.11766464   1.3457782e-05
  1.09750000e-08    2.12533456     3.29999140     1.11767842   1.3170757e-05
  1.10000000e-08    2.12528720     3.29999165     1.11769183   1.2889850e-05
  1.10250000e-08    2.12524081     3.29999188     1.11770490   1.2614929e-05
  1.10500000e-08    2.12519537     3.29999212     1.11771764   1.2345868e-05
  1.10750000e-08    2.12515085     3.29999234     1.11773004   1.2082543e-05
  1.11000000e-08    2.12510725     3.29999256     1.11774211   1.1824830e-05
  1.11250000e-08    2.12506453     3.29999277     1.11775388   1.1572610e-05
  1.11500000e-08    2.12502269     3.29999298     1.11776534   1.1325768e-05
  1.11750000e-08    2.12498170     3.29999318     1.11777650   1.1084187e-05
  1.12000000e-08    2.12494155     3.29999338     1.11778738   1.0847757e-05
  1.12250000e-08    2.12490222     3.29999356     1.11779797   1.0616367e-05
  1.12500000e-08    2.12486369     3.29999375     1.11780829   1.0389911e-05
  1.12750000e-08    2.12482594     3.29999393     1.11781834   1.0168282e-05
  1.13000000e-08    2.12478897     3.29999410     1.11782813   9.9513789e-06
  1.13250000e-08    2.12475276     3.29999427     1.11783766   9.7391005e-06
  1.13500000e-08    2.12471728     3.29999443     1.11784695   9.5313484e-06
  1.13750000e-08    2.12468253     3.29999459     1.11785599   9.3280261e-06
  1.14000000e-08    2.12464848     3.29999475     1.11786481   9.1290394e-06
  1.14250000e-08    2.12461513     3.29999490     1.11787339   8.9342958e-06
  1.14500000e-08    2.12458247     3.29999504     1.11788175   8.7437051e-06
  1.14750000e-08    2.12455047     3.29999518     1.11788989   8.5571787e-06
  1.15000000e-08    2.12451912     3.29999532     1.11789783   8.3746300e-06
  1.15250000e-08    2.12448841     3.29999546     1.11790555   8.1959744e-06
  1.15500000e-08    2.12445833     3.29999559     1.11791308   8.0211289e-06
  1.15750000e-08    2.12442886     3.29999571     1.11792041   7.8500124e-06
  1.16000000e-08    2.12440000     3.29999583     1.11792755   7.6825453e-06
  1.16250000e-08    2.12437172     3.29999595     1.11793451   7.5186499e-06
  1.16500000e-08    2.12434402     3.29999607     1.11794128   7.3582502e-06
  1.16750000e-08    2.12431689     3.29999618     1.11794788   7.2012716e-06
  1.17000000e-08    2.12429031     3.29999629     1.11795431   7.0476412e-06
  1.17250000e-08    2.12426427     3.29999640     1.11796057   6.8972878e-06
  1.17500000e-08    2.12423877     3.29999650     1.11796667   6.7501414e-06
  1.17750000e-08    2.12421378     3.29999660     1.11797261   6.6061337e-06
  1.18000000e-08    2.12418931     3.29999670     1.11797840   6.4651978e-06
  1.18250000e-08    2.12416533     3.29999679     1.11798404   6.3272682e-06
  1.18500000e-08    2.12414185     3.29999688     1.11798953   6.1922809e-06
  1.18750000e-08    2.12411884     3.29999697     1.11799487   6.0601732e-06
  1.19000000e-08    2.12409630     3.29999706     1.11800008   5.9308836e-06
  1.19250000e-08    2.12407423     3.29999714     1.11800516   5.8043522e-06
  1.19500000e-08    2.12405260     3.29999722     1.11801010   5.6805201e-06
  1.19750000e-08    2.12403142     3.29999730     1.11801491   5.5593297e-06
  1.20000000e-08    2.12401066     3.29999738     1.11801960   5.4407247e-06
  1.20250000e-08    2.12399033     3.29999745     1.11802417   5.3246502e-06
  1.20500000e-08    2.12397042     3.29999753     1.11802862   5.2110519e-06
  1.20750000e-08    2.12395091     3.29999760     1.11803295   5.0998773e-06
  1.21000000e-08    2.12393180     3.29999767     1.11803718   4.9910746e-06
  1.21250000e-08    2.12391308     3.29999773     1.11804129   4.8845933e-06
  1.21500000e-08    2.12389474     3.29999780     1.11804529   4.7803837e-06
  1.21750000e-08    2.12387678     3.29999786     1.11804919   4.6783976e-06
  1.22000000e-08    2.12385918     3.29999792     1.11805299   4.5785875e-06
  1.22250000e-08    2.12384194     3.29999798     1.11805670   4.4809070e-06
  1.22500000e-08    2.12382506     3.29999804     1.11806030   4.3853107e-06
  1.22750000e-08    2.12380852     3.29999810     1.11806381   4.2917541e-06
  1.23000000e-08    2.12379231     3.29999815     1.11806723   4.2001937e-06
  1.23250000e-08    2.12377644     3.29999820     1.11807057   4.1105871e-06
  1.23500000e-08    2.12376089     3.29999825     1.11807381   4.0228924e-06
  1.23750000e-08    2.12374566     3.29999830     1.11807697   3.9370689e-06
  1.24000000e-08    2.12373074     3.29999835     1.11808005   3.8530768e-06
  1.24250000e-08    2.12371612     3.29999840     1.11808305   3.7708770e-06
  1.24500000e-08    2.12370180     3.29999845     1.11808597   3.6904312e-06
  1.24750000e-08    2.12368778     3.29999849     1.11808882   3.6117020e-06
  1.25000000e-08    2.12367404     3.29999853     1.11809159   3.5346528e-06
  1.25250000e-08    2.12366058     3.29999857     1.11809429   3.4592478e-06
  1.25500000e-08    2.12364739     3.29999862     1.11809692   3.3854519e-06
  1.25750000e-08    2.12363447     3.29999865     1.11809949   3.3132308e-06
  1.26000000e-08    2.12362182     3.29999869     1.11810198   3.2425509e-06
  1.26250000e-08    2.12360943     3.29999873     1.11810441   3.1733793e-06
  1.26500000e-08    2.12359729     3.29999877     1.11810678   3.1056839e-06
  1.26750000e-08    2.12358539     3.29999880     1.11810909   3.0394331e-06
  1.27000000e-08    2.12357374     3.29999884     1.11811133   2.9745961e-06
  1.27250000e-08    2.12356233     3.29999887     1.11811352   2.9111429e-06
  1.27500000e-08    2.12355115     3.29999890     1.11811565   2.8490438e-06
  1.27750000e-08    2.12354020     3.29999893     1.11811773   2.7882699e-06
  1.28000000e-08    2.12352947     3.29999896     1.11811975   2.7287931e-06
  1.28250000e-08    2.12351896     3.29999899     1.11812172   2.6705856e-06
  1.28500000e-08    2.12350866     3.29999902     1.11812364   2.6136203e-06
  1.28750000e-08    2.12349858     3.29999905     1.11812551   2.5578708e-06
  1.29000000e-08    2.12348870     3.29999908     1.11812733   2.5033111e-06
  1.29250000e-08    2.12347902     3.29999910     1.11812910   2.4499158e-06
  1.29500000e-08    2.12346954     3.29999913     1.11813083   2.3976601e-06
  1.29750000e-08    2.12346025     3.29999915     1.11813251   2.3465197e-06
  1.30000000e-08    2.12345115     3.29999918     1.11813415   2.2964707e-06
  1.30250000e-08    2.12344224     3.29999920     1.11813575   2.2474899e-06
  1.30500000e-08    2.12343351     3.29999922     1.11813730   2.1995545e-06
  1.30750000e-08    2.12342496     3.29999925     1.11813882   2.1526422e-06
  1.31000000e-08    2.12341658     3.29999927     1.11814029   2.1067312e-06
  1.31250000e-08    2.12340837     3.29999929     1.11814173   2.0618000e-06
  1.31500000e-08    2.12340033     3.29999931     1.11814313   2.0178278e-06
  1.31750000e-08    2.12339246     3.29999933     1.11814449   1.9747942e-06
  1.32000000e-08    2.12338474     3.29999935     1.11814582   1.9326790e-06
  1.32250000e-08    2.12337719     3.29999937     1.11814711   1.8914628e-06
  1.32500000e-08    2.12336978     3.29999938     1.11814837   1.8511262e-06
  1.32750000e-08    2.12336253     3.29999940     1.11814960   1.8116506e-06
  1.33000000e-08    2.12335543     3.29999942     1.11815079   1.7730176e-06
  1.33250000e-08    2.12334847     3.29999944     1.11815196   1.7352091e-06
  1.33500000e-08    2.12334165     3.29999945     1.11815309   1.6982077e-06
  1.33750000e-08    2.12333497     3.29999947     1.11815420   1.6619960e-06
  1.34000000e-08    2.12332843     3.29999948     1.11815527   1.6265572e-06
  1.34250000e-08    2.12332202     3.29999950     1.11815632   1.5918749e-06
  1.34500000e-08    2.12331575     3.29999951     1.11815734   1.5579328e-06
  1.34750000e-08    2.12330960     3.29999953     1.11815834   1.5247153e-06
  1.35000000e-08    2.12330357     3.29999954     1.11815931   1.4922067e-06
  1.35250000e-08    2.12329767     3.29999955     1.11816025   1.4603921e-06
  1.35500000e-08    2.12329189     3.29999957     1.11816117   1.4292565e-06
  1.35750000e-08    2.12328623     3.29999958     1.11816206   1.3987855e-06
  1.36000000e-08    2.12328068     3.29999959     1.11816294   1.3689650e-06
  1.36250000e-08    2.12327525     3.29999960     1.11816379   1.3397809e-06
  1.36500000e-08    2.12326992     3.29999961     1.11816461   1.3112198e-06
  1.36750000e-08    2.12326471     3.29999962     1.11816542   1.2832684e-06
  1.37000000e-08    2.12325960     3.29999963     1.11816620   1.2559136e-06
  1.37250000e-08    2.12325460     3.29999964     1.11816697   1.2291427e-06
  1.37500000e-08    2.12324969     3.29999965     1.11816771   1.2029432e-06
  1.37750000e-08    2.12324489     3.29999966     1.11816844   1.1773030e-06
  1.38000000e-08    2.12324019     3.29999967     1.11816915   1.1522101e-06
  1.38250000e-08    2.12323558     3.29999968     1.11816983   1.1276529e-06
  1.38500000e-08    2.12323107     3.29999969     1.11817051   1.1036198e-06
  1.38750000e-08    2.12322664     3.29999970     1.11817116   1.0800997e-06
  1.39000000e-08    2.12322231     3.29999971     1.11817179   1.0570817e-06
  1.39250000e-08    2.12321807     3.29999972     1.11817241   1.0345551e-06
  1.39500000e-08    2.12321391     3.29999973     1.11817302   1.0125093e-06
  1.39750000e-08    2.12320984     3.29999973     1.11817361   9.9093408e-07
  1.40000000e-08    2.12320585     3.29999974     1.11817418   9.6981943e-07
  1.40250000e-08    2.12320194     3.29999975     1.11817474   9.4915551e-07
  1.40500000e-08    2.12319812     3.29999976     1.11817528   9.2893268e-07
  1.40750000e-08    2.12319437     3.29999976     1.11817581   9.0914153e-07
  1.41000000e-08    2.12319069     3.29999977     1.11817632   8.8977287e-07
  1.41250000e-08    2.12318709     3.29999978     1.11817683   8.7081765e-07
  1.41500000e-08    2.12318357     3.29999978     1.11817732   8.5226707e-07
  1.41750000e-08    2.12318012     3.29999979     1.11817779   8.3411248e-07
  1.42000000e-08    2.12317673     3.29999979     1.11817826   8.1634543e-07
  1.42250000e-08    2.12317342     3.29999980     1.11817871   7.9895765e-07
  1.42500000e-08    2.12317017     3.29999981     1.11817915   7.8194104e-07
  1.42750000e-08    2.12316699     3.29999981     1.11817958   7.6528769e-07
  1.43000000e-08    2.12316388     3.29999982     1.11817999   7.4898983e-07
  1.43250000e-08    2.12316083     3.29999982     1.11818040   7.3303989e-07
  1.43500000e-08    2.12315784     3.29999983     1.11818080   7.1743042e-07
  1.43750000e-08    2.12315491     3.29999983     1.11818118   7.0215417e-07
  1.44000000e-08    2.12315204     3.29999984     1.11818156   6.8720403e-07
  1.44250000e-08    2.12314923     3.29999984     1.11818193   6.7257302e-07
  1.44500000e-08    2.12314648     3.29999985     1.11818228   6.5825436e-07
  1.44750000e-08    2.12314378     3.29999985     1.11818263   6.4424135e-07
  1.45000000e-08    2.12314114     3.29999985     1.11818297   6.3052749e-07
  1.45250000e-08    2.12313856     3.29999986     1.11818330   6.1710637e-07
  1.45500000e-08    2.12313602     3.29999986     1.11818362   6.0397176e-07
  1.45750000e-08    2.12313354     3.29999987     1.11818393   5.9111754e-07
  1.46000000e-08    2.12313111     3.29999987     1.11818424   5.7853773e-07
  1.46250000e-08    2.12312872     3.29999987     1.11818453   5.6622646e-07
  1.46500000e-08    2.12312639     3.29999988     1.11818482   5.5417801e-07
  1.46750000e-08    2.12312410     3.29999988     1.11818511   5.4238675e-07
  1.47000000e-08    2.12312186     3.29999988     1.11818538   5.3084722e-07
  1.47250000e-08    2.12311967     3.29999989     1.11818565   5.1955402e-07
  1.47500000e-08    2.12311752     3.29999989     1.11818591   5.0850191e-07
  1.47750000e-08    2.12311541     3.29999989     1.11818616   1.6050246e-07
  1.48000000e-08    2.12311335     3.29999990     1.11818641     0.         
  1.48250000e-08    2.12311133     3.29999990     1.11818665     0.         
  1.48500000e-08    2.12310935     3.29999990     1.11818688     0.         
  1.48750000e-08    2.12310741     3.29999991     1.11818711     0.         
  1.49000000e-08    2.12310551     3.29999991     1.11818733     0.         
  1.49250000e-08    2.12310365     3.29999991     1.11818755     0.         
  1.49500000e-08    2.12310183     3.29999991     1.11818776     0.         
  1.49750000e-08    2.12310004     3.29999992     1.11818797     0.         
  1.50000000e-08    2.12309829     3.29999992     1.11818817     0.         
y

          ***** job concluded
 ******  HSPICE    -- U-2003.09  (20030718) 08:43:22  10/16/2003  pcnt         
 ******  
 ********************* v-t curve simulations *********************             
  ******  job statistics summary           tnom=  25.000 temp=  50.000         
 ******  

           total memory used        517 kbytes
           total cpu time         28.22 seconds
               job started at  08:43:22  10/16/2003
               job ended   at  08:44:43  10/16/2003


 ******  HSPICE    -- U-2003.09  (20030718) 08:43:22  10/16/2003  pcnt         
 ******  
                                                                               
  ******    alter processing listing       tnom=  25.000 temp=  50.000         
 ******  
 ********************************************************************************
 .alter                            $ maximum case
 $ alter processing continues $
  **reading include file=io_buf.inc
 ******  HSPICE    -- U-2003.09  (20030718) 08:43:22  10/16/2003  pcnt         
 ******  
 ********************* v-t curve simulations *********************             
  ******  circuit name directory                                               
 ******  
 circuit number to circuit name directory
 number  circuitname                   definition        multiplier
     0 main circuit
     5 xdrv_pd_on.x0.                  io_buf             1.00 
     6 xdrv_pd_off.x0.                 io_buf             1.00 
     7 xdrv_pu_on.x0.                  io_buf             1.00 
     8 xdrv_pu_off.x0.                 io_buf             1.00 
     9 xdrv_pd_on.x0.x1.               inverter           1.00 
    10 xdrv_pd_on.x0.x2.               nand2              1.00 
    11 xdrv_pd_on.x0.x3.               nor2               1.00 
    12 xdrv_pd_on.x0.x4.               inverter           1.00 
    13 xdrv_pd_on.x0.x5.               inverter           1.00 
    14 xdrv_pd_on.x0.x6.               nand2              1.00 
    15 xdrv_pd_on.x0.x7.               nor2               1.00 
    16 xdrv_pd_on.x0.x8.               inverter           1.00 
    17 xdrv_pd_off.x0.x1.              inverter           1.00 
    18 xdrv_pd_off.x0.x2.              nand2              1.00 
    19 xdrv_pd_off.x0.x3.              nor2               1.00 
    20 xdrv_pd_off.x0.x4.              inverter           1.00 
    21 xdrv_pd_off.x0.x5.              inverter           1.00 
    22 xdrv_pd_off.x0.x6.              nand2              1.00 
    23 xdrv_pd_off.x0.x7.              nor2               1.00 
    24 xdrv_pd_off.x0.x8.              inverter           1.00 
    25 xdrv_pu_on.x0.x1.               inverter           1.00 
    26 xdrv_pu_on.x0.x2.               nand2              1.00 
    27 xdrv_pu_on.x0.x3.               nor2               1.00 
    28 xdrv_pu_on.x0.x4.               inverter           1.00 
    29 xdrv_pu_on.x0.x5.               inverter           1.00 
    30 xdrv_pu_on.x0.x6.               nand2              1.00 
    31 xdrv_pu_on.x0.x7.               nor2               1.00 
    32 xdrv_pu_on.x0.x8.               inverter           1.00 
    33 xdrv_pu_off.x0.x1.              inverter           1.00 
    34 xdrv_pu_off.x0.x2.              nand2              1.00 
    35 xdrv_pu_off.x0.x3.              nor2               1.00 
    36 xdrv_pu_off.x0.x4.              inverter           1.00 
    37 xdrv_pu_off.x0.x5.              inverter           1.00 
    38 xdrv_pu_off.x0.x6.              nand2              1.00 
    39 xdrv_pu_off.x0.x7.              nor2               1.00 
    40 xdrv_pu_off.x0.x8.              inverter           1.00 
 ******  HSPICE    -- U-2003.09  (20030718) 08:43:22  10/16/2003  pcnt         
 ******  
 ********************* v-t curve simulations *********************             
  ******  operating point information      tnom=  25.000 temp= 100.000         
 ******  
 ***** operating point status is voltage   simulation time is     0.         
     node    =voltage           node    =voltage           node    =voltage           node    =voltage

 + 0:gclref  =   0.           0:out_pd_o=   2.20965480   0:out_pd_o=   3.13499994   0:out_pu_o=   0.86066854 
 + 0:out_pu_o= 1.0432246e-07  0:pclref  =   3.13500000   0:pdref   =   0.           0:pls_f   =   3.13500000 
 + 0:pls_r   =   0.           0:puref   =   3.13500000   0:v_pd_off=   3.13500000   0:v_pd_on =   3.13500000 
 + 0:v_pu_off=   0.           0:v_pu_on =   0.           0:voff    =   3.13500000   0:von     =   0.         
 + 5:en_b    =   3.13499895   5:gate_n  = 8.7929856e-08  5:gate_p  = 2.8138480e-06  5:pre_n1  = 7.7224230e-07
 + 5:pre_n2  =   3.13499895   5:pre_p1  = 1.4069238e-06  5:pre_p2  =   3.13499895   5:rcv_in  =   3.13499994 
 + 5:rcv_out = 3.5173098e-07  6:en_b    =   3.13499895   6:gate_n  =   3.13499160   6:gate_p  =   3.13499974 
 + 6:pre_n1  =   3.13499580   6:pre_n2  = 3.5173139e-07  6:pre_p1  =   3.13499791   6:pre_p2  = 3.5173118e-07
 + 6:rcv_in  =   2.20965480   6:rcv_out = 1.9429583e-02  7:en_b    =   3.13499895   7:gate_n  =   3.13499160 
 + 7:gate_p  =   3.13499974   7:pre_n1  =   3.13499580   7:pre_n2  = 3.5173139e-07  7:pre_p1  =   3.13499791 
 + 7:pre_p2  = 3.5173118e-07  7:rcv_in  = 1.0432246e-07  7:rcv_out =   3.13499895   8:en_b    =   3.13499895 
 + 8:gate_n  = 8.7929856e-08  8:gate_p  = 2.8138480e-06  8:pre_n1  = 7.7224232e-07  8:pre_n2  =   3.13499895 
 + 8:pre_p1  = 1.4069238e-06  8:pre_p2  =   3.13499895   8:rcv_in  =   0.86066854   8:rcv_out =   3.11061328 
 +10:n_n     = 7.0346158e-07 11:p_p     =   1.24051228  14:n_n     = 1.4069233e-06 15:p_p     =   3.12224279 
 +18:n_n     =   1.57813855  19:p_p     =   3.13499790  22:n_n     = 1.2756956e-02 23:p_p     =   3.13499580 
 +26:n_n     =   1.57813855  27:p_p     =   3.13499790  30:n_n     = 1.2756956e-02 31:p_p     =   3.13499580 
 +34:n_n     = 7.0346158e-07 35:p_p     =   1.24051228  38:n_n     = 1.4069233e-06 39:p_p     =   3.12224279 

 ******  
 ********************* v-t curve simulations *********************             
  ******  transient analysis               tnom=  25.000 temp= 100.000         
 ******  
   vpower=  3.1350E+00
   vfixture_pd_on=  3.1350E+00
   vfixture_pd_off=  3.1350E+00
   vfixture_pu_on=  0.0000E+00
   vfixture_pu_off=  0.0000E+00
   rfixture_pd_on=  5.0000E+01
   rfixture_pd_off=  5.0000E+01
   rfixture_pu_on=  5.0000E+01
   rfixture_pu_off=  5.0000E+01
   cfixture_pd_on=  0.0000E+00
   cfixture_pd_off=  0.0000E+00
   cfixture_pu_on=  0.0000E+00
   cfixture_pu_off=  0.0000E+00
x

          time    pulldown_on   pulldown_off     pullup_on     pullup_off   
                                                                            
    0.              3.13499994     2.20965480     0.             0.86066854 
  2.50000000e-11    3.13492701     2.20975378   1.4378600e-05    0.86066583 
  5.00000000e-11    3.13501933     2.20979950  -1.3490508e-04    0.86078346 
  7.50000000e-11    3.13507638     2.20998637  -2.0092678e-04    0.86080146 
  1.00000000e-10    3.13510812     2.21026785  -2.1650727e-04    0.86075543 
  1.25000000e-10    3.13512417     2.21059911  -2.0729132e-04    0.86067263 
  1.50000000e-10    3.13513062     2.21094977  -1.8528220e-04    0.86056970 
  1.75000000e-10    3.13513117     2.21129338  -1.5490668e-04    0.86045662 
  2.00000000e-10    3.13512807     2.21160566  -1.1948247e-04    0.86033955 
  2.25000000e-10    3.13512279     2.21186619  -8.0395889e-05    0.86022238 
  2.50000000e-10    3.13511618     2.21205892  -3.6856889e-05    0.86010759 
  2.75000000e-10    3.13510817     2.21216487   7.2776322e-06    0.85999641 
  3.00000000e-10    3.13509792     2.21217073   5.4864768e-05    0.85989019 
  3.25000000e-10    3.13508858     2.21206236   1.0901979e-04    0.85979264 
  3.50000000e-10    3.13507615     2.21182165   1.7100477e-04    0.85970099 
  3.75000000e-10    3.13505859     2.21142691   2.4293966e-04    0.85961760 
  4.00000000e-10    3.13503531     2.21084980   3.3376729e-04    0.85954741 
  4.25000000e-10    3.13500635     2.21003534   4.5187604e-04    0.85949612 
  4.50000000e-10    3.13497200     2.20892785   5.6305492e-04    0.85946947 
  4.75000000e-10    3.13493268     2.20752416   6.6463007e-04    0.85947296 
  5.00000000e-10    3.13488878     2.20583329   7.5501252e-04    0.85951164 
  5.25000000e-10    3.13484072     2.20387509   8.3415199e-04    0.85959022 
  5.50000000e-10    3.13478892     2.20167552   9.0293968e-04    0.85971297 
  5.75000000e-10    3.13473375     2.19926366   9.6231369e-04    0.85988376 
  6.00000000e-10    3.13467548     2.19666970   1.0132244e-03    0.86010598 
  6.25000000e-10    3.13461415     2.19392373   1.0567414e-03    0.86038248 
  6.50000000e-10    3.13455016     2.19105498   1.0939641e-03    0.86071648 
  6.75000000e-10    3.13448318     2.18809179   1.1258677e-03    0.86111062 
  7.00000000e-10    3.13441122     2.18506406   1.1534749e-03    0.86156636 
  7.25000000e-10    3.13433427     2.18201211   1.1726297e-03    0.86208816 
  7.50000000e-10    3.13425250     2.17897911   1.1741177e-03    0.86268053 
  7.75000000e-10    3.13416547     2.17598655   1.1419144e-03    0.86334756 
  8.00000000e-10    3.13407065     2.17311505   1.0393743e-03    0.86409266 
  8.25000000e-10    3.13396331     2.17052522   8.5770597e-04    0.86492111 
  8.50000000e-10    3.13385430     2.16841669   5.9712085e-04    0.86585189 
  8.75000000e-10    3.13375304     2.16700793   2.6146724e-04    0.86689045 
  9.00000000e-10    3.13366647     2.16652400  -1.4389251e-04    0.86803372 
  9.25000000e-10    3.13361445     2.16718919  -6.1310728e-04    0.86927845 
  9.50000000e-10    3.13356930     2.16922208  -1.1410122e-03    0.87057314 
  9.75000000e-10    3.13353609     2.17283427  -1.7227879e-03    0.87192049 
  1.00000000e-09    3.13354101     2.17823070  -2.3544488e-03    0.87332180 
  1.02500000e-09    3.13359649     2.18561217  -3.0325624e-03    0.87474694 
  1.05000000e-09    3.13371165     2.19517936  -3.7540660e-03    0.87615264 
  1.07500000e-09    3.13389331     2.20713951  -4.5165724e-03    0.87748587 
  1.10000000e-09    3.13414644     2.22171855  -5.3190279e-03    0.87868602 
  1.12500000e-09    3.13447459     2.23917476  -6.1640311e-03    0.87968669 
  1.15000000e-09    3.13488022     2.25963871  -7.0467803e-03    0.88041712 
  1.17500000e-09    3.13536649     2.28294873  -7.9659779e-03    0.88080410 
  1.20000000e-09    3.13593465     2.30905440  -8.9315018e-03    0.88076917 
  1.22500000e-09    3.13658272     2.33793118  -9.9518140e-03    0.88023041 
  1.25000000e-09    3.13730883     2.36955406  -1.1039951e-02    0.87910692 
  1.27500000e-09    3.13811157     2.40390375  -1.2219317e-02    0.87731865 
  1.30000000e-09    3.13899011     2.44097166  -1.3517564e-02    0.87478580 
  1.32500000e-09    3.13994455     2.48066034  -1.4884678e-02    0.87142804 
  1.35000000e-09    3.14097723     2.52270490  -1.6281213e-02    0.86716397 
  1.37500000e-09    3.14209353     2.56677174  -1.7733678e-02    0.86190800 
  1.40000000e-09    3.14329684     2.61247381  -1.9258135e-02    0.85556364 
  1.42500000e-09    3.14458997     2.65936324  -2.0868273e-02    0.84802464 
  1.45000000e-09    3.14598071     2.70692317  -2.2578634e-02    0.83917584 
  1.47500000e-09    3.14748874     2.75456664  -2.4406606e-02    0.82888621 
  1.50000000e-09    3.14907799     2.80164007  -2.6374673e-02    0.81694706 
  1.52500000e-09    3.15065754     2.84736970  -2.8512857e-02    0.80318196 
  1.55000000e-09    3.15221081     2.89075569  -3.0781016e-02    0.78778584 
  1.57500000e-09    3.15373500     2.93066996  -3.2999079e-02    0.77101264 
  1.60000000e-09    3.15522104     2.96609308  -3.5310793e-02    0.75292789 
  1.62500000e-09    3.15665757     2.99618617  -3.7867503e-02    0.73361219 
  1.65000000e-09    3.15803115     3.02028372  -4.0665963e-02    0.71315807 
  1.67500000e-09    3.15933720     3.03947105  -4.1166681e-02    0.69168198 
  1.70000000e-09    3.16057283     3.05519531  -3.5332916e-02    0.66930823 
  1.72500000e-09    3.16173640     3.06825902  -2.9673625e-02    0.64616565 
  1.75000000e-09    3.16282792     3.07916263  -2.4959668e-02    0.62237353 
  1.77500000e-09    3.16384863     3.08827411  -2.0950086e-02    0.59804753 
  1.80000000e-09    3.16479866     3.09587967  -1.7526752e-02    0.57330757 
  1.82500000e-09    3.16566930     3.10221319  -1.4630390e-02    0.54827654 
  1.85000000e-09    3.16644847     3.10747143  -1.2216817e-02    0.52310151 
  1.87500000e-09    3.16715132     3.11182199  -1.0241066e-02    0.49791739 
  1.90000000e-09    3.16779519     3.11540934  -8.6527589e-03    0.47283890 
  1.92500000e-09    3.16839414     3.11836100  -7.3944621e-03    0.44796293 
  1.95000000e-09    3.16895761     3.12077892  -6.4212697e-03    0.42336987 
  1.97500000e-09    3.16949252     3.12275226  -5.6873068e-03    0.39912891 
  2.00000000e-09    3.17000470     3.12435692  -5.1520992e-03    0.37530080 
  2.02500000e-09    3.17049884     3.12565652  -4.7968410e-03    0.35193573 
  2.05000000e-09    3.17097239     3.12670529  -4.6039531e-03    0.32908472 
  2.07500000e-09    3.17141488     3.12754888  -4.5430074e-03    0.30680571 
  2.10000000e-09    3.17181896     3.12821264  -4.5805236e-03    0.28515847 
  2.12500000e-09    3.17218124     3.12868863  -4.6643492e-03    0.26420207 
  2.15000000e-09    3.17250003     3.12898928  -4.7745687e-03    0.24399089 
  2.17500000e-09    3.17277422     3.12915666  -4.9038975e-03    0.22457274 
  2.20000000e-09    3.17300256     3.12924986  -5.0454749e-03    0.20598780 
  2.22500000e-09    3.17318283     3.12928840  -5.2035550e-03    0.18826637 
  2.25000000e-09    3.17333991     3.12928339  -5.3837374e-03    0.17144228 
  2.27500000e-09    3.17352946     3.12924330  -5.5628047e-03    0.15560536 
  2.30000000e-09    3.17372943     3.12917618  -5.7409074e-03    0.14080934 
  2.32500000e-09    3.17388847     3.12908794  -5.9174605e-03    0.12701514 
  2.35000000e-09    3.17400355     3.12898343  -6.0916634e-03    0.11415581 
  2.37500000e-09    3.17407767     3.12886683  -6.2627103e-03    0.10222370 
  2.40000000e-09    3.17411418     3.12874223  -6.4298645e-03  9.1236087e-02
  2.42500000e-09    3.17411674     3.12861016  -6.5924713e-03  8.1138117e-02
  2.45000000e-09    3.17408944     3.12846822  -6.7499455e-03  7.1915065e-02
  2.47500000e-09    3.17403793     3.12832443  -6.9017476e-03  6.3548827e-02
  2.50000000e-09    3.17397153     3.12817987  -7.0473519e-03  5.6013012e-02
  2.52500000e-09    3.17390743     3.12803546  -7.1862095e-03  4.9275252e-02
  2.55000000e-09    3.17387081     3.12789199  -7.3176999e-03  4.3299762e-02
  2.57500000e-09    3.17360561     3.12775012  -7.4410670e-03  3.8047311e-02
  2.60000000e-09    3.17263863     3.12761035  -7.5553244e-03  3.3474905e-02
  2.62500000e-09    3.17047306     3.12747310  -7.6591082e-03  2.9535968e-02
  2.65000000e-09    3.16790138     3.12733869  -7.7504316e-03  2.6174894e-02
  2.67500000e-09    3.16555767     3.12720736  -7.8262471e-03  2.3301711e-02
  2.70000000e-09    3.16346094     3.12707928  -7.8816078e-03  2.0894376e-02
  2.72500000e-09    3.16157703     3.12695458  -7.9079180e-03  1.9309759e-02
  2.75000000e-09    3.15987259     3.12683331  -7.8888755e-03  1.8180904e-02
  2.77500000e-09    3.15832048     3.12671553  -7.7897859e-03  1.7232071e-02
  2.80000000e-09    3.15689923     3.12660123  -7.5435659e-03  1.6374733e-02
  2.82500000e-09    3.15559174     3.12649038  -7.3432712e-03  1.5576925e-02
  2.85000000e-09    3.15438425     3.12638292  -7.2814325e-03  1.4825084e-02
  2.87500000e-09    3.15326553     3.12627880  -7.2286042e-03  1.4112607e-02
  2.90000000e-09    3.15222629     3.12617791  -7.1219237e-03  1.3435882e-02
  2.92500000e-09    3.15125874     3.12608013  -6.9286052e-03  1.2792716e-02
  2.95000000e-09    3.15035625     3.12598532  -6.6292691e-03  1.2181644e-02
  2.97500000e-09    3.14951308     3.12589333  -6.2114846e-03  1.1601579e-02
  3.00000000e-09    3.14872425     3.12580395  -5.6668951e-03  1.1051631e-02
  3.02500000e-09    3.14798522     3.12571692  -4.9897470e-03  1.0531002e-02
  3.05000000e-09    3.14729185     3.12563194  -4.1760954e-03  1.0038927e-02
  3.07500000e-09    3.14664014     3.12554857  -3.2232967e-03  9.5746512e-03
  3.10000000e-09    3.14602604     3.12546621  -2.1296778e-03  9.1374286e-03
  3.12500000e-09    3.14544497     3.12538390  -8.9430411e-04  8.7265436e-03
  3.15000000e-09    3.14489100     3.12530006   4.8327745e-04  8.3413530e-03
  3.17500000e-09    3.14435457     3.12521146   2.0030615e-03  7.9813709e-03
  3.20000000e-09    3.14381767     3.12511024   3.6644222e-03  7.6464326e-03
  3.22500000e-09    3.14329705     3.12496018   5.4666280e-03  7.3370546e-03
  3.25000000e-09    3.14281994     3.12454752   7.4087462e-03  7.0553698e-03
  3.27500000e-09    3.14232210     3.12394243   9.4896724e-03  6.8082022e-03
  3.30000000e-09    3.14175278     3.12332363   1.1708160e-02  6.6269070e-03
  3.32500000e-09    3.14107626     3.12274900   1.4062845e-02  6.6738652e-03
  3.35000000e-09    3.14026611     3.12223527   1.6552269e-02  6.9134286e-03
  3.37500000e-09    3.13930243     3.12179965   1.9174896e-02  7.1687964e-03
  3.40000000e-09    3.13817019     3.12144697   2.1929128e-02  7.3789579e-03
  3.42500000e-09    3.13685817     3.12116449   2.4813318e-02  7.5307501e-03
  3.45000000e-09    3.13535808     3.12094103   2.7825781e-02  7.6024360e-03
  3.47500000e-09    3.13366338     3.12076725   3.0964803e-02  7.6018661e-03
  3.50000000e-09    3.13177171     3.12063529   3.4228649e-02  7.5520351e-03
  3.52500000e-09    3.12968155     3.12053847   3.7615568e-02  7.4689497e-03
  3.55000000e-09    3.12739238     3.12047116   4.1123797e-02  7.3638276e-03
  3.57500000e-09    3.12490467     3.12042856   4.4751573e-02  7.2446540e-03
  3.60000000e-09    3.12221973     3.12040663   4.8497165e-02  7.1171805e-03
  3.62500000e-09    3.11933950     3.12040193   5.2359233e-02  6.9855636e-03
  3.65000000e-09    3.11626639     3.12041158   5.6335755e-02  6.8527950e-03
  3.67500000e-09    3.11300322     3.12043313   6.0424356e-02  6.7210039e-03
  3.70000000e-09    3.10955309     3.12046471   6.4622856e-02  6.5916774e-03
  3.72500000e-09    3.10591931     3.12050520   6.8929189e-02  6.4658233e-03
  3.75000000e-09    3.10210535     3.12055308   7.3341362e-02  6.3440932e-03
  3.77500000e-09    3.09811478     3.12060696   7.7857429e-02  6.2268757e-03
  3.80000000e-09    3.09395125     3.12066567   8.2475468e-02  6.1143665e-03
  3.82500000e-09    3.08961846     3.12072826   8.7193550e-02  6.0066224e-03
  3.85000000e-09    3.08512044     3.12079392   9.2009685e-02  5.9036014e-03
  3.87500000e-09    3.08046159     3.12086200   9.6921687e-02  5.8051850e-03
  3.90000000e-09    3.07564654     3.12093195     0.10193209   5.7110384e-03
  3.92500000e-09    3.07068013     3.12100330     0.10704279   5.6206289e-03
  3.95000000e-09    3.06556733     3.12107566     0.11224361   5.5335583e-03
  3.97500000e-09    3.06031325     3.12114873     0.11753371   5.4495401e-03
  4.00000000e-09    3.05492308     3.12122223     0.12291196   5.3683486e-03
  4.02500000e-09    3.04940219     3.12129594     0.12837709   5.2897935e-03
  4.05000000e-09    3.04375615     3.12136967     0.13392778   5.2137057e-03
  4.07500000e-09    3.03799106     3.12144328     0.13956271   5.1399314e-03
  4.10000000e-09    3.03210558     3.12151663     0.14528052   5.0683273e-03
  4.12500000e-09    3.02609764     3.12158961     0.15107989   4.9987598e-03
  4.15000000e-09    3.01998586     3.12166215     0.15695949   4.9311032e-03
  4.17500000e-09    3.01377455     3.12173416     0.16291832   4.8652395e-03
  4.20000000e-09    3.00746824     3.12180559     0.16895534   4.8010578e-03
  4.22500000e-09    3.00107158     3.12187638     0.17506843   4.7384544e-03
  4.25000000e-09    2.99458925     3.12194650     0.18125502   4.6773322e-03
  4.27500000e-09    2.98802595     3.12201592     0.18751238   4.6176003e-03
  4.30000000e-09    2.98138634     3.12208460     0.19383759   4.5591743e-03
  4.32500000e-09    2.97467505     3.12215269     0.20022761   4.5019756e-03
  4.35000000e-09    2.96789664     3.12222113     0.20667931   4.4459310e-03
  4.37500000e-09    2.96105564     3.12229055     0.21318949   4.3909728e-03
  4.40000000e-09    2.95415650     3.12236124     0.21975489   4.3370382e-03
  4.42500000e-09    2.94720360     3.12243336     0.22637220   4.2840690e-03
  4.45000000e-09    2.94020126     3.12250704     0.23303808   4.2320115e-03
  4.47500000e-09    2.93315371     3.12258236     0.23974917   4.1808161e-03
  4.50000000e-09    2.92606510     3.12265937     0.24650209   4.1304369e-03
  4.52500000e-09    2.91893951     3.12273807     0.25329345   4.0808316e-03
  4.55000000e-09    2.91178093     3.12281848     0.26011986   4.0319612e-03
  4.57500000e-09    2.90459328     3.12290057     0.26697794   3.9837899e-03
  4.60000000e-09    2.89738037     3.12298432     0.27386430   3.9362845e-03
  4.62500000e-09    2.89014593     3.12306971     0.28077559   3.8894146e-03
  4.65000000e-09    2.88289361     3.12315668     0.28770847   3.8431522e-03
  4.67500000e-09    2.87562696     3.12324520     0.29465960   3.7974715e-03
  4.70000000e-09    2.86834946     3.12333521     0.30162571   3.7523488e-03
  4.72500000e-09    2.86106447     3.12342666     0.30860353   3.7077623e-03
  4.75000000e-09    2.85377528     3.12351951     0.31558984   3.6636920e-03
  4.77500000e-09    2.84648508     3.12361370     0.32258146   3.6201197e-03
  4.80000000e-09    2.83919698     3.12370917     0.32957523   3.5770283e-03
  4.82500000e-09    2.83191399     3.12380587     0.33656808   3.5344025e-03
  4.85000000e-09    2.82463902     3.12390374     0.34355695   3.4922281e-03
  4.87500000e-09    2.81737491     3.12400273     0.35053886   3.4504920e-03
  4.90000000e-09    2.81012440     3.12410278     0.35751086   3.4091824e-03
  4.92500000e-09    2.80289014     3.12420384     0.36447009   3.3682883e-03
  4.95000000e-09    2.79567469     3.12430585     0.37141371   3.3277997e-03
  4.97500000e-09    2.78848052     3.12440875     0.37833899   3.2877075e-03
  5.00000000e-09    2.78131003     3.12451249     0.38524322   3.2480033e-03
  5.02500000e-09    2.77416550     3.12461702     0.39212379   3.2086795e-03
  5.05000000e-09    2.76704917     3.12472229     0.39897815   3.1697289e-03
  5.07500000e-09    2.75996316     3.12482823     0.40580380   3.1311453e-03
  5.10000000e-09    2.75290951     3.12493479     0.41259835   3.0929228e-03
  5.12500000e-09    2.74589020     3.12504192     0.41935946   3.0550560e-03
  5.15000000e-09    2.73890710     3.12514958     0.42608485   3.0175400e-03
  5.17500000e-09    2.73196203     3.12525770     0.43277236   2.9803704e-03
  5.20000000e-09    2.72505671     3.12536623     0.43941985   2.9435430e-03
  5.22500000e-09    2.71819279     3.12547513     0.44602531   2.9070541e-03
  5.25000000e-09    2.71137185     3.12558434     0.45258677   2.8709004e-03
  5.27500000e-09    2.70459539     3.12569381     0.45910236   2.8350786e-03
  5.30000000e-09    2.69786485     3.12580350     0.46557028   2.7995860e-03
  5.32500000e-09    2.69118158     3.12591336     0.47198879   2.7644198e-03
  5.35000000e-09    2.68454687     3.12602333     0.47835627   2.7295777e-03
  5.37500000e-09    2.67796197     3.12613337     0.48467113   2.6950574e-03
  5.40000000e-09    2.67142802     3.12624344     0.49093189   2.6608569e-03
  5.42500000e-09    2.66494615     3.12635349     0.49713714   2.6269743e-03
  5.45000000e-09    2.65851740     3.12646347     0.50328554   2.5934078e-03
  5.47500000e-09    2.65214276     3.12657335     0.50937582   2.5601558e-03
  5.50000000e-09    2.64582322     3.12668307     0.51540681   2.5272168e-03
  5.52500000e-09    2.63955969     3.12679260     0.52137738   2.4945894e-03
  5.55000000e-09    2.63335311     3.12690189     0.52728651   2.4622721e-03
  5.57500000e-09    2.62720445     3.12701091     0.53313321   2.4302637e-03
  5.60000000e-09    2.62111480     3.12711962     0.53891660   2.3985630e-03
  5.62500000e-09    2.61508471     3.12722797     0.54463584   2.3671689e-03
  5.65000000e-09    2.60911302     3.12733594     0.55029018   2.3360802e-03
  5.67500000e-09    2.60319907     3.12744348     0.55587893   2.3052957e-03
  5.70000000e-09    2.59734330     3.12755056     0.56140145   2.2748146e-03
  5.72500000e-09    2.59154644     3.12765715     0.56685719   2.2446357e-03
  5.75000000e-09    2.58580924     3.12776321     0.57224564   2.2147579e-03
  5.77500000e-09    2.58013233     3.12786871     0.57756636   2.1851804e-03
  5.80000000e-09    2.57451624     3.12797362     0.58281898   2.1559020e-03
  5.82500000e-09    2.56896135     3.12807792     0.58800317   2.1269218e-03
  5.85000000e-09    2.56346799     3.12818157     0.59311867   2.0982387e-03
  5.87500000e-09    2.55803638     3.12828454     0.59816526   2.0698517e-03
  5.90000000e-09    2.55266668     3.12838681     0.60314279   2.0417599e-03
  5.92500000e-09    2.54735901     3.12848836     0.60805115   2.0139620e-03
  5.95000000e-09    2.54211343     3.12858915     0.61289027   1.9864572e-03
  5.97500000e-09    2.53692994     3.12868917     0.61766016   1.9592442e-03
  6.00000000e-09    2.53180853     3.12878840     0.62236084   1.9323219e-03
  6.02500000e-09    2.52674914     3.12888681     0.62699239   1.9056893e-03
  6.05000000e-09    2.52175168     3.12898438     0.63155494   1.8793452e-03
  6.07500000e-09    2.51681604     3.12908110     0.63604865   1.8532883e-03
  6.10000000e-09    2.51194207     3.12917694     0.64047372   1.8275175e-03
  6.12500000e-09    2.50712960     3.12927189     0.64483039   1.8020315e-03
  6.15000000e-09    2.50237843     3.12936594     0.64911894   1.7768290e-03
  6.17500000e-09    2.49768834     3.12945907     0.65333966   1.7519088e-03
  6.20000000e-09    2.49305909     3.12955126     0.65749291   1.7272694e-03
  6.22500000e-09    2.48849040     3.12964251     0.66157906   1.7029096e-03
  6.25000000e-09    2.48398200     3.12973279     0.66559850   1.6788278e-03
  6.27500000e-09    2.47953358     3.12982211     0.66955165   1.6550228e-03
[...]
    1.7970010000      5.6800000000     3.1270089882     3.0950611799    -1.8869034079    -1.8514009942 
    1.7980010000      5.6850000000     3.1379736385     3.1060238805    -1.8934886064    -1.8579782539 
    1.7990010000      5.6900000000     3.1489389319     3.1169872241    -1.9000741935    -1.8645559018 
    1.8000010000      5.6950000000     3.1599048639     3.1279512064    -1.9066601667    -1.8711339354 
    1.8010010000      5.7000000000     3.1708714301     3.1389158229    -1.9132465234    -1.8777123519 
    1.8020010000      5.7050000000     3.1818386264     3.1498810694    -1.9198332608    -1.8842911488 
    1.8030010000      5.7100000000     3.1928064484     3.1608469415    -1.9264203765    -1.8908703235 
    1.8040010000      5.7150000000     3.2037748918     3.1718134351    -1.9330078679    -1.8974498733 
    1.8050010000      5.7200000000     3.2147439526     3.1827805460    -1.9395957324    -1.9040297959 
    1.8060010000      5.7250000000     3.2257136265     3.1937482700    -1.9461839675    -1.9106100886 
    1.8070010000      5.7300000000     3.2366839094     3.2047166030    -1.9527725708    -1.9171907490 
    1.8080010000      5.7350000000     3.2476547973     3.2156855410    -1.9593615397    -1.9237717746 
    1.8090010000      5.7400000000     3.2586262862     3.2266550799    -1.9659508719    -1.9303531630 
    1.8100010000      5.7450000000     3.2695983721     3.2376252158    -1.9725405649    -1.9369349117 
    1.8110010000      5.7500000000     3.2805710510     3.2485959446    -1.9791306163    -1.9435170185 
    1.8120010000      5.7550000000     3.2915443190     3.2595672626    -1.9857210239    -1.9500994809 
    1.8130010000      5.7600000000     3.3025181723     3.2705391658    -1.9923117852    -1.9566822965 
    1.8140010000      5.7650000000     3.3134926071     3.2815116505    -1.9989028979    -1.9632654632 
    1.8150010000      5.7700000000     3.3244676195     3.2924847128    -2.0054943597    -1.9698489785 
    1.8160010000      5.7750000000     3.3354432058     3.3034583489    -2.0120861684    -1.9764328402 
    1.8170010000      5.7800000000     3.3464193623     3.3144325552    -2.0186783217    -1.9830170461 
    1.8180010000      5.7850000000     3.3573960853     3.3254073280    -2.0252708174    -1.9896015939 
    1.8190010000      5.7900000000     3.3683733711     3.3363826636    -2.0318636533    -1.9961864814 
    1.8200010000      5.7950000000     3.3793512162     3.3473585584    -2.0384568271    -2.0027717064 
    1.8210010000      5.8000000000     3.3903296169     3.3583350089    -2.0450503368    -2.0093572668 
    1.8220010000      5.8050000000     3.4013085698     3.3693120114    -2.0516441801    -2.0159431604 
    1.8230010000      5.8100000000     3.4122880713     3.3802895625    -2.0582383550    -2.0225293851 
    1.8240010000      5.8150000000     3.4232681179     3.3912676588    -2.0648328593    -2.0291159388 
    1.8250010000      5.8200000000     3.4342487062     3.4022462967    -2.0714276910    -2.0357028194 
    1.8260010000      5.8250000000     3.4452298328     3.4132254729    -2.0780228481    -2.0422900249 
    1.8270010000      5.8300000000     3.4562114943     3.4242051839    -2.0846183283    -2.0488775531 
    1.8280010000      5.8350000000     3.4671936874     3.4351854265    -2.0912141298    -2.0554654021 
    1.8290010000      5.8400000000     3.4781764087     3.4461661973    -2.0978102505    -2.0620535699 
    1.8300010000      5.8450000000     3.4891596549     3.4571474931    -2.1044066885    -2.0686420545 
    1.8310010000      5.8500000000     3.5001434229     3.4681293105    -2.1110034417    -2.0752308538 
    1.8320010000      5.8550000000     3.5111277093     3.4791116463    -2.1176005082    -2.0818199661 
    1.8330010000      5.8600000000     3.5221125110     3.4900944974    -2.1241978861    -2.0884093892 
    1.8340010000      5.8650000000     3.5330978249     3.5010778606    -2.1307955734    -2.0949991214 
    1.8350010000      5.8700000000     3.5440836477     3.5120617328    -2.1373935684    -2.1015891606 
    1.8360010000      5.8750000000     3.5550699764     3.5230461108    -2.1439918690    -2.1081795051 
    1.8370010000      5.8800000000     3.5660568078     3.5340309915    -2.1505904734    -2.1147701530 
    1.8380010000      5.8850000000     3.5770441390     3.5450163720    -2.1571893798    -2.1213611023 
    1.8390010000      5.8900000000     3.5880319669     3.5560022491    -2.1637885863    -2.1279523514 
    1.8400010000      5.8950000000     3.5990202885     3.5669886200    -2.1703880912    -2.1345438983 
    1.8410010000      5.9000000000     3.6100091009     3.5779754815    -2.1769878926    -2.1411357413 
    1.8420010000      5.9050000000     3.6209984011     3.5889628308    -2.1835879887    -2.1477278786 
    1.8430010000      5.9100000000     3.6319881861     3.5999506650    -2.1901883779    -2.1543203084 
    1.8440010000      5.9150000000     3.6429784532     3.6109389811    -2.1967890582    -2.1609130291 
    1.8450010000      5.9200000000     3.6539691993     3.6219277764    -2.2033900281    -2.1675060387 
    1.8460010000      5.9250000000     3.6649604218     3.6329170479    -2.2099912858    -2.1740993357 
    1.8470010000      5.9300000000     3.6759521177     3.6439067928    -2.2165928295    -2.1806929183 
    1.8480010000      5.9350000000     3.6869442842     3.6548970084    -2.2231946576    -2.1872867849 
    1.8490010000      5.9400000000     3.6979369187     3.6658876919    -2.2297967685    -2.1938809337 
    1.8500010000      5.9450000000     3.7089300184     3.6768788405    -2.2363991604    -2.2004753631 
    1.8510010000      5.9500000000     3.7199235805     3.6878704515    -2.2430018317    -2.2070700714 
    1.8520010000      5.9550000000     3.7309176024     3.6988625223    -2.2496047808    -2.2136650572 
    1.8530010000      5.9600000000     3.7419120813     3.7098550501    -2.2562080061    -2.2202603186 
    1.8540010000      5.9650000000     3.7529070147     3.7208480323    -2.2628115059    -2.2268558541 
    1.8550010000      5.9700000000     3.7639023999     3.7318414663    -2.2694152787    -2.2334516622 
    1.8560010000      5.9750000000     3.7748982343     3.7428353495    -2.2760193230    -2.2400477412 
    1.8570010000      5.9800000000     3.7858945153     3.7538296793    -2.2826236370    -2.2466440896 
    1.8580010000      5.9850000000     3.7968912404     3.7648244531    -2.2892282194    -2.2532407058 
    1.8590010000      5.9900000000     3.8078884070     3.7758196685    -2.2958330685    -2.2598375884 
    1.8600010000      5.9950000000     3.8188860127     3.7868153228    -2.3024381829    -2.2664347357 
    1.8610010000      6.0000000000     3.8298840548     3.7978114136    -2.3090435610    -2.2730321463 
    1.8620010000      6.0050000000     3.8408825310     3.8088079385    -2.3156492014    -2.2796298188 
    1.8630010000      6.0100000000     3.8518814388     3.8198048949    -2.3222551025    -2.2862277515 
    1.8640010000      6.0150000000     3.8628807758     3.8308022804    -2.3288612628    -2.2928259430 
    1.8650010000      6.0200000000     3.8738805396     3.8418000927    -2.3354676811    -2.2994243919 
    1.8660010000      6.0250000000     3.8848807277     3.8527983294    -2.3420743557    -2.3060230968 
    1.8670010000      6.0300000000     3.8958813378     3.8637969880    -2.3486812852    -2.3126220561 
    1.8680010000      6.0350000000     3.9068823675     3.8747960662    -2.3552884683    -2.3192212686 
    1.8690010000      6.0400000000     3.9178838146     3.8857955617    -2.3618959035    -2.3258207327 
    1.8700010000      6.0450000000     3.9288856766     3.8967954722    -2.3685035894    -2.3324204470 
    1.8710010000      6.0500000000     3.9398879514     3.9077957953    -2.3751115247    -2.3390204102 
    1.8720010000      6.0550000000     3.9508906366     3.9187965289    -2.3817197079    -2.3456206210 
    1.8730010000      6.0600000000     3.9618937300     3.9297976706    -2.3883281377    -2.3522210779 
    1.8740010000      6.0650000000     3.9728972293     3.9407992183    -2.3949368128    -2.3588217796 
    1.8750010000      6.0700000000     3.9839011323     3.9518011696    -2.4015457317    -2.3654227247 
    1.8760010000      6.0750000000     3.9949054369     3.9628035225    -2.4081548932    -2.3720239119 
    1.8770010000      6.0800000000     4.0059101408     3.9738062746    -2.4147642960    -2.3786253400 
    1.8780010000      6.0850000000     4.0169152419     3.9848094239    -2.4213739387    -2.3852270075 
    1.8790010000      6.0900000000     4.0279207380     3.9958129682    -2.4279838201    -2.3918289133 
    1.8800010000      6.0950000000     4.0389266270     4.0068169054    -2.4345939388    -2.3984310559 
    1.8810010000      6.1000000000     4.0499329068     4.0178212333    -2.4412042936    -2.4050334342 
    1.8820010000      6.1050000000     4.0609395753     4.0288259499    -2.4478148832    -2.4116360468 
    1.8830010000      6.1100000000     4.0719466303     4.0398310531    -2.4544257064    -2.4182388925 
    1.8840010000      6.1150000000     4.0829540700     4.0508365407    -2.4610367619    -2.4248419701 
    1.8850010000      6.1200000000     4.0939618921     4.0618424109    -2.4676480484    -2.4314452783 
    1.8860010000      6.1250000000     4.1049700947     4.0728486615    -2.4742595648    -2.4380488159 
    1.8870010000      6.1300000000     4.1159786757     4.0838552905    -2.4808713098    -2.4446525816 
    1.8880010000      6.1350000000     4.1269876332     4.0948622960    -2.4874832823    -2.4512565744 
    1.8890010000      6.1400000000     4.1379969652     4.1058696759    -2.4940954809    -2.4578607929 
    1.8900010000      6.1450000000     4.1490066697     4.1168774282    -2.5007079046    -2.4644652359 
    1.8910010000      6.1500000000     4.1600167447     4.1278855511    -2.5073205521    -2.4710699024 
    1.8920010000      6.1550000000     4.1710271883     4.1388940426    -2.5139334223    -2.4776747911 
    1.8930010000      6.1600000000     4.1820379987     4.1499029008    -2.5205465141    -2.4842799009 
    1.8940010000      6.1650000000     4.1930491738     4.1609121237    -2.5271598262    -2.4908852306 
    1.8950010000      6.1700000000     4.2040607118     4.1719217095    -2.5337733575    -2.4974907791 
    1.8960010000      6.1750000000     4.2150726109     4.1829316563    -2.5403871069    -2.5040965452 
    1.8970010000      6.1800000000     4.2260848691     4.1939419622    -2.5470010733    -2.5107025278 
    1.8980010000      6.1850000000     4.2370974846     4.2049526254    -2.5536152555    -2.5173087258 
    1.8990010000      6.1900000000     4.2481104555     4.2159636441    -2.5602296525    -2.5239151381 
    1.9000010000      6.1950000000     4.2591237802     4.2269750163    -2.5668442631    -2.5305217636 
    1.9010010000      6.2000000000     4.2701374567     4.2379867404    -2.5734590862    -2.5371286012 
    1.9020010000      6.2050000000     4.2811514832     4.2489988146    -2.5800741208    -2.5437356498 
    1.9030010000      6.2100000000     4.2921658580     4.2600112369    -2.5866893658    -2.5503429083 
    1.9040010000      6.2150000000     4.3031805793     4.2710240058    -2.5933048201    -2.5569503757 
    1.9050010000      6.2200000000     4.3141956454     4.2820371194    -2.5999204827    -2.5635580509 
    1.9060010000      6.2250000000     4.3252110545     4.2930505760    -2.6065363525    -2.5701659329 
    1.9070010000      6.2300000000     4.3362268049     4.3040643738    -2.6131524285    -2.5767740206 
    1.9080010000      6.2350000000     4.3472428949     4.3150785112    -2.6197687096    -2.5833823130 
    1.9090010000      6.2400000000     4.3582593227     4.3260929865    -2.6263851948    -2.5899908090 
    1.9100010000      6.2450000000     4.3692760868     4.3371077979    -2.6330018830    -2.5965995077 
    1.9110010000      6.2500000000     4.3802931854     4.3481229438    -2.6396187734    -2.6032084080 
    1.9120010000      6.2550000000     4.3913106168     4.3591384226    -2.6462358649    -2.6098175089 
    1.9130010000      6.2600000000     4.4023283794     4.3701542325    -2.6528531564    -2.6164268095 
    1.9140010000      6.2650000000     4.4133464716     4.3811703720    -2.6594706470    -2.6230363087 
    1.9150010000      6.2700000000     4.4243648917     4.3921868394    -2.6660883357    -2.6296460055 
    1.9160010000      6.2750000000     4.4353836382     4.4032036331    -2.6727062215    -2.6362558990 
    1.9170010000      6.2800000000     4.4464027094     4.4142207515    -2.6793243035    -2.6428659882 
    1.9180010000      6.2850000000     4.4574221037     4.4252381930    -2.6859425806    -2.6494762722 
    1.9190010000      6.2900000000     4.4684418196     4.4362559560    -2.6925610521    -2.6560867500 
    1.9200010000      6.2950000000     4.4794618555     4.4472740390    -2.6991797168    -2.6626974206 
    1.9210010000      6.3000000000     4.4904822098     4.4582924404    -2.7057985739    -2.6693082832 
    1.9220010000      6.3050000000     4.5015028810     4.4693111587    -2.7124176224    -2.6759193367 
    1.9230010000      6.3100000000     4.5125238676     4.4803301923    -2.7190368614    -2.6825305802 
    1.9240010000      6.3150000000     4.5235451680     4.4913495397    -2.7256562900    -2.6891420129 
    1.9250010000      6.3200000000     4.5345667807     4.5023691994    -2.7322759072    -2.6957536338 
    1.9260010000      6.3250000000     4.5455887042     4.5133891699    -2.7388957123    -2.7023654420 
    1.9270010000      6.3300000000     4.5566109371     4.5244094497    -2.7455157041    -2.7089774367 
    1.9280010000      6.3350000000     4.5676334778     4.5354300373    -2.7521358820    -2.7155896168 
    1.9290010000      6.3400000000     4.5786563249     4.5464509313    -2.7587562449    -2.7222019816 
    1.9300010000      6.3450000000     4.5896794769     4.5574721302    -2.7653767920    -2.7288145301 
    1.9310010000      6.3500000000     4.6007029324     4.5684936325    -2.7719975225    -2.7354272616 
    1.9320010000      6.3550000000     4.6117266900     4.5795154369    -2.7786184354    -2.7420401750 
    1.9330010000      6.3600000000     4.6227507481     4.5905375418    -2.7852395298    -2.7486532695 
    1.9340010000      6.3650000000     4.6337751055     4.6015599459    -2.7918608051    -2.7552665444 
    1.9350010000      6.3700000000     4.6447997606     4.6125826478    -2.7984822602    -2.7618799987 
    1.9360010000      6.3750000000     4.6558247122     4.6236056461    -2.8051038944    -2.7684936316 
    1.9370010000      6.3800000000     4.6668499587     4.6346289393    -2.8117257067    -2.7751074422 
    1.9380010000      6.3850000000     4.6778754989     4.6456525261    -2.8183476965    -2.7817214298 
    1.9390010000      6.3900000000     4.6889013313     4.6566764051    -2.8249698628    -2.7883355935 
    1.9400010000      6.3950000000     4.6999274546     4.6677005751    -2.8315922048    -2.7949499324 
    1.9410010000      6.4000000000     4.7109538675     4.6787250345    -2.8382147217    -2.8015644459 
    1.9420010000      6.4050000000     4.7219805686     4.6897497821    -2.8448374127    -2.8081791329 
    1.9430010000      6.4100000000     4.7330075565     4.7007748166    -2.8514602770    -2.8147939929 
    1.9440010000      6.4150000000     4.7440348301     4.7118001366    -2.8580833139    -2.8214090248 
    1.9450010000      6.4200000000     4.7550623878     4.7228257408    -2.8647065224    -2.8280242281 
    1.9460010000      6.4250000000     4.7660902285     4.7338516280    -2.8713299019    -2.8346396018 
    1.9470010000      6.4300000000     4.7771183508     4.7448777967    -2.8779534514    -2.8412551452 
    1.9480010000      6.4350000000     4.7881467535     4.7559042458    -2.8845771704    -2.8478708575 
    1.9490010000      6.4400000000     4.7991754353     4.7669309739    -2.8912010579    -2.8544867380 
    1.9500010000      6.4450000000     4.8102043949     4.7779579799    -2.8978251133    -2.8611027858 
    1.9510010000      6.4500000000     4.8212336311     4.7889852623    -2.9044493357    -2.8677190003 
    1.9520010000      6.4550000000     4.8322631425     4.8000128201    -2.9110737245    -2.8743353806 
    1.9530010000      6.4600000000     4.8432929280     4.8110406518    -2.9176982788    -2.8809519260 
    1.9540010000      6.4650000000     4.8543229863     4.8220687564    -2.9243229979    -2.8875686358 
    1.9550010000      6.4700000000     4.8653533163     4.8330971325    -2.9309478810    -2.8941855092 
    1.9560010000      6.4750000000     4.8763839166     4.8441257790    -2.9375729276    -2.9008025455 
    1.9570010000      6.4800000000     4.8874147860     4.8551546946    -2.9441981367    -2.9074197440 
    1.9580010000      6.4850000000     4.8984459235     4.8661838782    -2.9508235077    -2.9140371039 
    1.9590010000      6.4900000000     4.9094773277     4.8772133285    -2.9574490398    -2.9206546245 
    1.9600010000      6.4950000000     4.9205089975     4.8882430444    -2.9640747324    -2.9272723051 
    1.9610010000      6.5000000000     4.9315409317     4.8992730247    -2.9707005848    -2.9338901450 
    1.9620010000      6.5050000000     4.9425731292     4.9103032681    -2.9773265961    -2.9405081435 
    1.9630010000      6.5100000000     4.9536055887     4.9213337737    -2.9839527658    -2.9471262999 
    1.9640010000      6.5150000000     4.9646383091     4.9323645401    -2.9905790931    -2.9537446134 
    1.9650010000      6.5200000000     4.9756712894     4.9433955663    -2.9972055773    -2.9603630834 
    1.9660010000      6.5250000000     4.9867045282     4.9544268510    -3.0038322178    -2.9669817093 
    1.9670010000      6.5300000000     4.9977380246     4.9654583933    -3.0104590138    -2.9736004902 
    1.9680010000      6.5350000000     5.0087717773     4.9764901919    -3.0170859648    -2.9802194256 
    1.9690010000      6.5400000000     5.0198057853     4.9875222458    -3.0237130699    -2.9868385147 
    1.9700010000      6.5450000000     5.0308400475     4.9985545537    -3.0303403286    -2.9934577570 
    1.9710010000      6.5500000000     5.0418745627     5.0095871147    -3.0369677401    -3.0000771516 
    1.9720010000      6.5550000000     5.0529093298     5.0206199276    -3.0435953039    -3.0066966981 
    1.9730010000      6.5600000000     5.0639443479     5.0316529914    -3.0502230192    -3.0133163956 
    1.9740010000      6.5650000000     5.0749796156     5.0426863049    -3.0568508854    -3.0199362436 
    1.9750010000      6.5700000000     5.0860151321     5.0537198671    -3.0634789018    -3.0265562414 
    1.9760010000      6.5750000000     5.0970508963     5.0647536769    -3.0701070679    -3.0331763883 
    1.9770010000      6.5800000000     5.1080869070     5.0757877332    -3.0767353829    -3.0397966838 
    1.9780010000      6.5850000000     5.1191231632     5.0868220351    -3.0833638463    -3.0464171272 
    1.9790010000      6.5900000000     5.1301596639     5.0978565814    -3.0899924573    -3.0530377178 
    1.9800010000      6.5950000000     5.1411964081     5.1088913711    -3.0966212154    -3.0596584550 
    1.9810010000      6.6000000000     5.1522333946     5.1199264031    -3.1032501200    -3.0662793383 
    1.9820010000      6.6050000000     5.1632706225     5.1309616766    -3.1098791704    -3.0729003669 
    1.9830010000      6.6100000000     5.1743079383     5.1419971861    -3.1165082767    -3.0795215381 
y

          ***** job concluded
 ******  HSPICE    -- U-2003.09  (20030718) 08:43:22  10/16/2003  pcnt         
 ******  
 ********************* i-v curve simulations *********************             
  ******  job statistics summary           tnom=  25.000 temp=   0.000         
 ******  

           total memory used        532 kbytes
           total cpu time         60.37 seconds
               job started at  08:43:22  10/16/2003
               job ended   at  08:51:11  10/16/2003


  lic: Release hspice token(s) 
